LTspice 24.0.12 for Windows
Circuit: * C:\Users\AntovI\Desktop\Projects\702\702-pumpcontrol102\Simulations\+3.3V\3V3.asc
Start Time: Wed Mar  5 10:59:26 2025
solver = Normal
Maximum thread count: 12



ERROR: Node N002 is floating and connected to current source I1

WARNING: Less than two connections to node n001.  This node is used by r15.
WARNING: Less than two connections to node vref.  This node is used by v1.
WARNING: Less than two connections to node vin.  This node is used by v2.
Direct Newton iteration for .op point succeeded.
.step run=0



.step run=1



.step run=2



.step run=3



.step run=4



.step run=5



.step run=6



.step run=7



.step run=8



.step run=9



.step run=10



.step run=11



.step run=12



.step run=13



.step run=14



.step run=15



.step run=16



.step run=17



.step run=18



.step run=19



.step run=20



.step run=21



.step run=22



.step run=23



.step run=24



.step run=25



.step run=26



.step run=27



.step run=28



.step run=29



.step run=30



.step run=31



.step run=32



.step run=33



.step run=34



.step run=35



.step run=36



.step run=37



.step run=38



.step run=39



.step run=40



.step run=41



.step run=42



.step run=43



.step run=44



.step run=45



.step run=46



.step run=47



.step run=48



.step run=49



.step run=50



.step run=51



.step run=52



.step run=53



.step run=54



.step run=55



.step run=56



.step run=57



.step run=58



.step run=59



.step run=60



.step run=61



.step run=62



.step run=63



.step run=64



.step run=65



.step run=66



.step run=67



.step run=68



.step run=69



.step run=70



.step run=71



.step run=72



.step run=73



.step run=74



.step run=75



.step run=76



.step run=77



.step run=78



.step run=79



.step run=80



.step run=81



.step run=82



.step run=83



.step run=84



.step run=85



.step run=86



.step run=87



.step run=88



.step run=89



.step run=90



.step run=91



.step run=92



.step run=93



.step run=94



.step run=95



.step run=96



.step run=97



.step run=98



.step run=99



.step run=100



.step run=101



.step run=102



.step run=103



.step run=104



.step run=105



.step run=106



.step run=107



.step run=108



.step run=109



.step run=110



.step run=111



.step run=112



.step run=113



.step run=114



.step run=115



.step run=116



.step run=117



.step run=118



.step run=119



.step run=120



.step run=121



.step run=122



.step run=123



.step run=124



.step run=125



.step run=126



.step run=127



.step run=128



.step run=129



.step run=130



.step run=131



.step run=132



.step run=133



.step run=134



.step run=135



.step run=136



.step run=137



.step run=138



.step run=139



.step run=140



.step run=141



.step run=142



.step run=143



.step run=144



.step run=145



.step run=146



.step run=147



.step run=148



.step run=149



.step run=150



.step run=151



.step run=152



.step run=153



.step run=154



.step run=155



.step run=156



.step run=157



.step run=158



.step run=159



.step run=160



.step run=161



.step run=162



.step run=163



.step run=164



.step run=165



.step run=166



.step run=167



.step run=168



.step run=169



.step run=170



.step run=171



.step run=172



.step run=173



.step run=174



.step run=175



.step run=176



.step run=177



.step run=178



.step run=179



.step run=180



.step run=181



.step run=182



.step run=183



.step run=184



.step run=185



.step run=186



.step run=187



.step run=188



.step run=189



.step run=190



.step run=191



.step run=192



.step run=193



.step run=194



.step run=195



.step run=196



.step run=197



.step run=198



.step run=199



.step run=200



.step run=201



.step run=202



.step run=203



.step run=204



.step run=205



.step run=206



.step run=207



.step run=208



.step run=209



.step run=210



.step run=211



.step run=212



.step run=213



.step run=214



.step run=215



.step run=216



.step run=217



.step run=218



.step run=219



.step run=220



.step run=221



.step run=222



.step run=223



.step run=224



.step run=225



.step run=226



.step run=227



.step run=228



.step run=229



.step run=230



.step run=231



.step run=232



.step run=233



.step run=234



.step run=235



.step run=236



.step run=237



.step run=238



.step run=239



.step run=240



.step run=241



.step run=242



.step run=243



.step run=244



.step run=245



.step run=246



.step run=247



.step run=248



.step run=249



.step run=250



.step run=251



.step run=252



.step run=253



.step run=254



.step run=255



.step run=256



.step run=257



.step run=258



.step run=259



.step run=260



.step run=261



.step run=262



.step run=263



.step run=264



.step run=265



.step run=266



.step run=267



.step run=268



.step run=269



.step run=270



.step run=271



.step run=272



.step run=273



.step run=274



.step run=275



.step run=276



.step run=277



.step run=278



.step run=279



.step run=280



.step run=281



.step run=282



.step run=283



.step run=284



.step run=285



.step run=286



.step run=287



.step run=288



.step run=289



.step run=290



.step run=291



.step run=292



.step run=293



.step run=294



.step run=295



.step run=296



.step run=297



.step run=298



.step run=299



.step run=300



.step run=301



.step run=302



.step run=303



.step run=304



.step run=305



.step run=306



.step run=307



.step run=308



.step run=309



.step run=310



.step run=311



.step run=312



.step run=313



.step run=314



.step run=315



.step run=316



.step run=317



.step run=318



.step run=319



.step run=320



.step run=321



.step run=322



.step run=323



.step run=324



.step run=325



.step run=326



.step run=327



.step run=328



.step run=329



.step run=330



.step run=331



.step run=332



.step run=333



.step run=334



.step run=335



.step run=336



.step run=337



.step run=338



.step run=339



.step run=340



.step run=341



.step run=342



.step run=343



.step run=344



.step run=345



.step run=346



.step run=347



.step run=348



.step run=349



.step run=350



.step run=351



.step run=352



.step run=353



.step run=354



.step run=355



.step run=356



.step run=357



.step run=358



.step run=359



.step run=360



.step run=361



.step run=362



.step run=363



.step run=364



.step run=365



.step run=366



.step run=367



.step run=368



.step run=369



.step run=370



.step run=371



.step run=372



.step run=373



.step run=374



.step run=375



.step run=376



.step run=377



.step run=378



.step run=379



.step run=380



.step run=381



.step run=382



.step run=383



.step run=384



.step run=385



.step run=386



.step run=387



.step run=388



.step run=389



.step run=390



.step run=391



.step run=392



.step run=393



.step run=394



.step run=395



.step run=396



.step run=397



.step run=398



.step run=399



.step run=400



.step run=401



.step run=402



.step run=403



.step run=404



.step run=405



.step run=406



.step run=407



.step run=408



.step run=409



.step run=410



.step run=411



.step run=412



.step run=413



.step run=414



.step run=415



.step run=416



.step run=417



.step run=418



.step run=419



.step run=420



.step run=421



.step run=422



.step run=423



.step run=424



.step run=425



.step run=426



.step run=427



.step run=428



.step run=429



.step run=430



.step run=431



.step run=432



.step run=433



.step run=434



.step run=435



.step run=436



.step run=437



.step run=438



.step run=439



.step run=440



.step run=441



.step run=442



.step run=443



.step run=444



.step run=445



.step run=446



.step run=447



.step run=448



.step run=449



.step run=450



.step run=451



.step run=452



.step run=453



.step run=454



.step run=455



.step run=456



.step run=457



.step run=458



.step run=459



.step run=460



.step run=461



.step run=462



.step run=463



.step run=464



.step run=465



.step run=466



.step run=467



.step run=468



.step run=469



.step run=470



.step run=471



.step run=472



.step run=473



.step run=474



.step run=475



.step run=476



.step run=477



.step run=478



.step run=479



.step run=480



.step run=481



.step run=482



.step run=483



.step run=484



.step run=485



.step run=486



.step run=487



.step run=488



.step run=489



.step run=490



.step run=491



.step run=492



.step run=493



.step run=494



.step run=495



.step run=496



.step run=497



.step run=498



.step run=499



.step run=500



.step run=501



.step run=502



.step run=503



.step run=504



.step run=505



.step run=506



.step run=507



.step run=508



.step run=509



.step run=510



.step run=511



.step run=512



.step run=513



.step run=514



.step run=515



.step run=516



.step run=517



.step run=518



.step run=519



.step run=520



.step run=521



.step run=522



.step run=523



.step run=524



.step run=525



.step run=526



.step run=527



.step run=528



.step run=529



.step run=530



.step run=531



.step run=532



.step run=533



.step run=534



.step run=535



.step run=536



.step run=537



.step run=538



.step run=539



.step run=540



.step run=541



.step run=542



.step run=543



.step run=544



.step run=545



.step run=546



.step run=547



.step run=548



.step run=549



.step run=550



.step run=551



.step run=552



.step run=553



.step run=554



.step run=555



.step run=556



.step run=557



.step run=558



.step run=559



.step run=560



.step run=561



.step run=562



.step run=563



.step run=564



.step run=565



.step run=566



.step run=567



.step run=568



.step run=569



.step run=570



.step run=571



.step run=572



.step run=573



.step run=574



.step run=575



.step run=576



.step run=577



.step run=578



.step run=579



.step run=580



.step run=581



.step run=582



.step run=583



.step run=584



.step run=585



.step run=586



.step run=587



.step run=588



.step run=589



.step run=590



.step run=591



.step run=592



.step run=593



.step run=594



.step run=595



.step run=596



.step run=597



.step run=598



.step run=599



.step run=600



.step run=601



.step run=602



.step run=603



.step run=604



.step run=605



.step run=606



.step run=607



.step run=608



.step run=609



.step run=610



.step run=611



.step run=612



.step run=613



.step run=614



.step run=615



.step run=616



.step run=617



.step run=618



.step run=619



.step run=620



.step run=621



.step run=622



.step run=623



.step run=624



.step run=625



.step run=626



.step run=627



.step run=628



.step run=629



.step run=630



.step run=631



.step run=632



.step run=633



.step run=634



.step run=635



.step run=636



.step run=637



.step run=638



.step run=639



.step run=640



.step run=641



.step run=642



.step run=643



.step run=644



.step run=645



.step run=646



.step run=647



.step run=648



.step run=649



.step run=650



.step run=651



.step run=652



.step run=653



.step run=654



.step run=655



.step run=656



.step run=657



.step run=658



.step run=659



.step run=660



.step run=661



.step run=662



.step run=663



.step run=664



.step run=665



.step run=666



.step run=667



.step run=668



.step run=669



.step run=670



.step run=671



.step run=672



.step run=673



.step run=674



.step run=675



.step run=676



.step run=677



.step run=678



.step run=679



.step run=680



.step run=681



.step run=682



.step run=683



.step run=684



.step run=685



.step run=686



.step run=687



.step run=688



.step run=689



.step run=690



.step run=691



.step run=692



.step run=693



.step run=694



.step run=695



.step run=696



.step run=697



.step run=698



.step run=699



.step run=700



.step run=701



.step run=702



.step run=703



.step run=704



.step run=705



.step run=706



.step run=707



.step run=708



.step run=709



.step run=710



.step run=711



.step run=712



.step run=713



.step run=714



.step run=715



.step run=716



.step run=717



.step run=718



.step run=719



.step run=720



.step run=721



.step run=722



.step run=723



.step run=724



.step run=725



.step run=726



.step run=727



.step run=728



.step run=729



.step run=730



.step run=731



.step run=732



.step run=733



.step run=734



.step run=735



.step run=736



.step run=737



.step run=738



.step run=739



.step run=740



.step run=741



.step run=742



.step run=743



.step run=744



.step run=745



.step run=746



.step run=747



.step run=748



.step run=749



.step run=750



.step run=751



.step run=752



.step run=753



.step run=754



.step run=755



.step run=756



.step run=757



.step run=758



.step run=759



.step run=760



.step run=761



.step run=762



.step run=763



.step run=764



.step run=765



.step run=766



.step run=767



.step run=768



.step run=769



.step run=770



.step run=771



.step run=772



.step run=773



.step run=774



.step run=775



.step run=776



.step run=777



.step run=778



.step run=779



.step run=780



.step run=781



.step run=782



.step run=783



.step run=784



.step run=785



.step run=786



.step run=787



.step run=788



.step run=789



.step run=790



.step run=791



.step run=792



.step run=793



.step run=794



.step run=795



.step run=796



.step run=797



.step run=798



.step run=799



.step run=800



.step run=801



.step run=802



.step run=803



.step run=804



.step run=805



.step run=806



.step run=807



.step run=808



.step run=809



.step run=810



.step run=811



.step run=812



.step run=813



.step run=814



.step run=815



.step run=816



.step run=817



.step run=818



.step run=819



.step run=820



.step run=821



.step run=822



.step run=823



.step run=824



.step run=825



.step run=826



.step run=827



.step run=828



.step run=829



.step run=830



.step run=831



.step run=832



.step run=833



.step run=834



.step run=835



.step run=836



.step run=837



.step run=838



.step run=839



.step run=840



.step run=841



.step run=842



.step run=843



.step run=844



.step run=845



.step run=846



.step run=847



.step run=848



.step run=849



.step run=850



.step run=851



.step run=852



.step run=853



.step run=854



.step run=855



.step run=856



.step run=857



.step run=858



.step run=859



.step run=860



.step run=861



.step run=862



.step run=863



.step run=864



.step run=865



.step run=866



.step run=867



.step run=868



.step run=869



.step run=870



.step run=871



.step run=872



.step run=873



.step run=874



.step run=875



.step run=876



.step run=877



.step run=878



.step run=879



.step run=880



.step run=881



.step run=882



.step run=883



.step run=884



.step run=885



.step run=886



.step run=887



.step run=888



.step run=889



.step run=890



.step run=891



.step run=892



.step run=893



.step run=894



.step run=895



.step run=896



.step run=897



.step run=898



.step run=899



.step run=900



.step run=901



.step run=902



.step run=903



.step run=904



.step run=905



.step run=906



.step run=907



.step run=908



.step run=909



.step run=910



.step run=911



.step run=912



.step run=913



.step run=914



.step run=915



.step run=916



.step run=917



.step run=918



.step run=919



.step run=920



.step run=921



.step run=922



.step run=923



.step run=924



.step run=925



.step run=926



.step run=927



.step run=928



.step run=929



.step run=930



.step run=931



.step run=932



.step run=933



.step run=934



.step run=935



.step run=936



.step run=937



.step run=938



.step run=939



.step run=940



.step run=941



.step run=942



.step run=943



.step run=944



.step run=945



.step run=946



.step run=947



.step run=948



.step run=949



.step run=950



.step run=951



.step run=952



.step run=953



.step run=954



.step run=955



.step run=956



.step run=957



.step run=958



.step run=959



.step run=960



.step run=961



.step run=962



.step run=963



.step run=964



.step run=965



.step run=966



.step run=967



.step run=968



.step run=969



.step run=970



.step run=971



.step run=972



.step run=973



.step run=974



.step run=975



.step run=976



.step run=977



.step run=978



.step run=979



.step run=980



.step run=981



.step run=982



.step run=983



.step run=984



.step run=985



.step run=986



.step run=987



.step run=988



.step run=989



.step run=990



.step run=991



.step run=992



.step run=993



.step run=994



.step run=995



.step run=996



.step run=997



.step run=998



.step run=999



.step run=1000



.step run=1001



.step run=1002



.step run=1003



.step run=1004



.step run=1005



.step run=1006



.step run=1007



.step run=1008



.step run=1009



.step run=1010



.step run=1011



.step run=1012



.step run=1013



.step run=1014



.step run=1015



.step run=1016



.step run=1017



.step run=1018



.step run=1019



.step run=1020



.step run=1021



.step run=1022



.step run=1023



.step run=1024



.step run=1025



.step run=1026



.step run=1027



.step run=1028



.step run=1029



.step run=1030



.step run=1031



.step run=1032



.step run=1033



.step run=1034



.step run=1035



.step run=1036



.step run=1037



.step run=1038



.step run=1039



.step run=1040



.step run=1041



.step run=1042



.step run=1043



.step run=1044



.step run=1045



.step run=1046



.step run=1047



.step run=1048



.step run=1049



.step run=1050



.step run=1051



.step run=1052



.step run=1053



.step run=1054



.step run=1055



.step run=1056



.step run=1057



.step run=1058



.step run=1059



.step run=1060



.step run=1061



.step run=1062



.step run=1063



.step run=1064



.step run=1065



.step run=1066



.step run=1067



.step run=1068



.step run=1069



.step run=1070



.step run=1071



.step run=1072



.step run=1073



.step run=1074



.step run=1075



.step run=1076



.step run=1077



.step run=1078



.step run=1079



.step run=1080



.step run=1081



.step run=1082



.step run=1083



.step run=1084



.step run=1085



.step run=1086



.step run=1087



.step run=1088



.step run=1089



.step run=1090



.step run=1091



.step run=1092



.step run=1093



.step run=1094



.step run=1095



.step run=1096



.step run=1097



.step run=1098



.step run=1099



.step run=1100



.step run=1101



.step run=1102



.step run=1103



.step run=1104



.step run=1105



.step run=1106



.step run=1107



.step run=1108



.step run=1109



.step run=1110



.step run=1111



.step run=1112



.step run=1113



.step run=1114



.step run=1115



.step run=1116



.step run=1117



.step run=1118



.step run=1119



.step run=1120



.step run=1121



.step run=1122



.step run=1123



.step run=1124



.step run=1125



.step run=1126



.step run=1127



.step run=1128



.step run=1129



.step run=1130



.step run=1131



.step run=1132



.step run=1133



.step run=1134



.step run=1135



.step run=1136



.step run=1137



.step run=1138



.step run=1139



.step run=1140



.step run=1141



.step run=1142



.step run=1143



.step run=1144



.step run=1145



.step run=1146



.step run=1147



.step run=1148



.step run=1149



.step run=1150



.step run=1151



.step run=1152



.step run=1153



.step run=1154



.step run=1155



.step run=1156



.step run=1157



.step run=1158



.step run=1159



.step run=1160



.step run=1161



.step run=1162



.step run=1163



.step run=1164



.step run=1165



.step run=1166



.step run=1167



.step run=1168



.step run=1169



.step run=1170



.step run=1171



.step run=1172



.step run=1173



.step run=1174



.step run=1175



.step run=1176



.step run=1177



.step run=1178



.step run=1179



.step run=1180



.step run=1181



.step run=1182



.step run=1183



.step run=1184



.step run=1185



.step run=1186



.step run=1187



.step run=1188



.step run=1189



.step run=1190



.step run=1191



.step run=1192



.step run=1193



.step run=1194



.step run=1195



.step run=1196



.step run=1197



.step run=1198



.step run=1199



.step run=1200



.step run=1201



.step run=1202



.step run=1203



.step run=1204



.step run=1205



.step run=1206



.step run=1207



.step run=1208



.step run=1209



.step run=1210



.step run=1211



.step run=1212



.step run=1213



.step run=1214



.step run=1215



.step run=1216



.step run=1217



.step run=1218



.step run=1219



.step run=1220



.step run=1221



.step run=1222



.step run=1223



.step run=1224



.step run=1225



.step run=1226



.step run=1227



.step run=1228



.step run=1229



.step run=1230



.step run=1231



.step run=1232



.step run=1233



.step run=1234



.step run=1235



.step run=1236



.step run=1237



.step run=1238



.step run=1239



.step run=1240



.step run=1241



.step run=1242



.step run=1243



.step run=1244



.step run=1245



.step run=1246



.step run=1247



.step run=1248



.step run=1249



.step run=1250



.step run=1251



.step run=1252



.step run=1253



.step run=1254



.step run=1255



.step run=1256



.step run=1257



.step run=1258



.step run=1259



.step run=1260



.step run=1261



.step run=1262



.step run=1263



.step run=1264



.step run=1265



.step run=1266



.step run=1267



.step run=1268



.step run=1269



.step run=1270



.step run=1271



.step run=1272



.step run=1273



.step run=1274



.step run=1275



.step run=1276



.step run=1277



.step run=1278



.step run=1279



.step run=1280



.step run=1281



.step run=1282



.step run=1283



.step run=1284



.step run=1285



.step run=1286



.step run=1287



.step run=1288



.step run=1289



.step run=1290



.step run=1291



.step run=1292



.step run=1293



.step run=1294



.step run=1295



.step run=1296



.step run=1297



.step run=1298



.step run=1299



.step run=1300



.step run=1301



.step run=1302



.step run=1303



.step run=1304



.step run=1305



.step run=1306



.step run=1307



.step run=1308



.step run=1309



.step run=1310



.step run=1311



.step run=1312



.step run=1313



.step run=1314



.step run=1315



.step run=1316



.step run=1317



.step run=1318



.step run=1319



.step run=1320



.step run=1321



.step run=1322



.step run=1323



.step run=1324



.step run=1325



.step run=1326



.step run=1327



.step run=1328



.step run=1329



.step run=1330



.step run=1331



.step run=1332



.step run=1333



.step run=1334



.step run=1335



.step run=1336



.step run=1337



.step run=1338



.step run=1339



.step run=1340



.step run=1341



.step run=1342



.step run=1343



.step run=1344



.step run=1345



.step run=1346



.step run=1347



.step run=1348



.step run=1349



.step run=1350



.step run=1351



.step run=1352



.step run=1353



.step run=1354



.step run=1355



.step run=1356



.step run=1357



.step run=1358



.step run=1359



.step run=1360



.step run=1361



.step run=1362



.step run=1363



.step run=1364



.step run=1365



.step run=1366



.step run=1367



.step run=1368



.step run=1369



.step run=1370



.step run=1371



.step run=1372



.step run=1373



.step run=1374



.step run=1375



.step run=1376



.step run=1377



.step run=1378



.step run=1379



.step run=1380



.step run=1381



.step run=1382



.step run=1383



.step run=1384



.step run=1385



.step run=1386



.step run=1387



.step run=1388



.step run=1389



.step run=1390



.step run=1391



.step run=1392



.step run=1393



.step run=1394



.step run=1395



.step run=1396



.step run=1397



.step run=1398



.step run=1399



.step run=1400



.step run=1401



.step run=1402



.step run=1403



.step run=1404



.step run=1405



.step run=1406



.step run=1407



.step run=1408



.step run=1409



.step run=1410



.step run=1411



.step run=1412



.step run=1413



.step run=1414



.step run=1415



.step run=1416



.step run=1417



.step run=1418



.step run=1419



.step run=1420



.step run=1421



.step run=1422



.step run=1423



.step run=1424



.step run=1425



.step run=1426



.step run=1427



.step run=1428



.step run=1429



.step run=1430



.step run=1431



.step run=1432



.step run=1433



.step run=1434



.step run=1435



.step run=1436



.step run=1437



.step run=1438



.step run=1439



.step run=1440



.step run=1441



.step run=1442



.step run=1443



.step run=1444



.step run=1445



.step run=1446



.step run=1447



.step run=1448



.step run=1449



.step run=1450



.step run=1451



.step run=1452



.step run=1453



.step run=1454



.step run=1455



.step run=1456



.step run=1457



.step run=1458



.step run=1459



.step run=1460



.step run=1461



.step run=1462



.step run=1463



.step run=1464



.step run=1465



.step run=1466



.step run=1467



.step run=1468



.step run=1469



.step run=1470



.step run=1471



.step run=1472



.step run=1473



.step run=1474



.step run=1475



.step run=1476



.step run=1477



.step run=1478



.step run=1479



.step run=1480



.step run=1481



.step run=1482



.step run=1483



.step run=1484



.step run=1485



.step run=1486



.step run=1487



.step run=1488



.step run=1489



.step run=1490



.step run=1491



.step run=1492



.step run=1493



.step run=1494



.step run=1495



.step run=1496



.step run=1497



.step run=1498



.step run=1499



.step run=1500



.step run=1501



.step run=1502



.step run=1503



.step run=1504



.step run=1505



.step run=1506



.step run=1507



.step run=1508



.step run=1509



.step run=1510



.step run=1511



.step run=1512



.step run=1513



.step run=1514



.step run=1515



.step run=1516



.step run=1517



.step run=1518



.step run=1519



.step run=1520



.step run=1521



.step run=1522



.step run=1523



.step run=1524



.step run=1525



.step run=1526



.step run=1527



.step run=1528



.step run=1529



.step run=1530



.step run=1531



.step run=1532



.step run=1533



.step run=1534



.step run=1535



.step run=1536



.step run=1537



.step run=1538



.step run=1539



.step run=1540



.step run=1541



.step run=1542



.step run=1543



.step run=1544



.step run=1545



.step run=1546



.step run=1547



.step run=1548



.step run=1549



.step run=1550



.step run=1551



.step run=1552



.step run=1553



.step run=1554



.step run=1555



.step run=1556



.step run=1557



.step run=1558



.step run=1559



.step run=1560



.step run=1561



.step run=1562



.step run=1563



.step run=1564



.step run=1565



.step run=1566



.step run=1567



.step run=1568



.step run=1569



.step run=1570



.step run=1571



.step run=1572



.step run=1573



.step run=1574



.step run=1575



.step run=1576



.step run=1577



.step run=1578



.step run=1579



.step run=1580



.step run=1581



.step run=1582



.step run=1583



.step run=1584



.step run=1585



.step run=1586



.step run=1587



.step run=1588



.step run=1589



.step run=1590



.step run=1591



.step run=1592



.step run=1593



.step run=1594



.step run=1595



.step run=1596



.step run=1597



.step run=1598



.step run=1599



.step run=1600



.step run=1601



.step run=1602



.step run=1603



.step run=1604



.step run=1605



.step run=1606



.step run=1607



.step run=1608



.step run=1609



.step run=1610



.step run=1611



.step run=1612



.step run=1613



.step run=1614



.step run=1615



.step run=1616



.step run=1617



.step run=1618



.step run=1619



.step run=1620



.step run=1621



.step run=1622



.step run=1623



.step run=1624



.step run=1625



.step run=1626



.step run=1627



.step run=1628



.step run=1629



.step run=1630



.step run=1631



.step run=1632



.step run=1633



.step run=1634



.step run=1635



.step run=1636



.step run=1637



.step run=1638



.step run=1639



.step run=1640



.step run=1641



.step run=1642



.step run=1643



.step run=1644



.step run=1645



.step run=1646



.step run=1647



.step run=1648



.step run=1649



.step run=1650



.step run=1651



.step run=1652



.step run=1653



.step run=1654



.step run=1655



.step run=1656



.step run=1657



.step run=1658



.step run=1659



.step run=1660



.step run=1661



.step run=1662



.step run=1663



.step run=1664



.step run=1665



.step run=1666



.step run=1667



.step run=1668



.step run=1669



.step run=1670



.step run=1671



.step run=1672



.step run=1673



.step run=1674



.step run=1675



.step run=1676



.step run=1677



.step run=1678



.step run=1679



.step run=1680



.step run=1681



.step run=1682



.step run=1683



.step run=1684



.step run=1685



.step run=1686



.step run=1687



.step run=1688



.step run=1689



.step run=1690



.step run=1691



.step run=1692



.step run=1693



.step run=1694



.step run=1695



.step run=1696



.step run=1697



.step run=1698



.step run=1699



.step run=1700



.step run=1701



.step run=1702



.step run=1703



.step run=1704



.step run=1705



.step run=1706



.step run=1707



.step run=1708



.step run=1709



.step run=1710



.step run=1711



.step run=1712



.step run=1713



.step run=1714



.step run=1715



.step run=1716



.step run=1717



.step run=1718



.step run=1719



.step run=1720



.step run=1721



.step run=1722



.step run=1723



.step run=1724



.step run=1725



.step run=1726



.step run=1727



.step run=1728



.step run=1729



.step run=1730



.step run=1731



.step run=1732



.step run=1733



.step run=1734



.step run=1735



.step run=1736



.step run=1737



.step run=1738



.step run=1739



.step run=1740



.step run=1741



.step run=1742



.step run=1743



.step run=1744



.step run=1745



.step run=1746



.step run=1747



.step run=1748



.step run=1749



.step run=1750



.step run=1751



.step run=1752



.step run=1753



.step run=1754



.step run=1755



.step run=1756



.step run=1757



.step run=1758



.step run=1759



.step run=1760



.step run=1761



.step run=1762



.step run=1763



.step run=1764



.step run=1765



.step run=1766



.step run=1767



.step run=1768



.step run=1769



.step run=1770



.step run=1771



.step run=1772



.step run=1773



.step run=1774



.step run=1775



.step run=1776



.step run=1777



.step run=1778



.step run=1779



.step run=1780



.step run=1781



.step run=1782



.step run=1783



.step run=1784



.step run=1785



.step run=1786



.step run=1787



.step run=1788



.step run=1789



.step run=1790



.step run=1791



.step run=1792



.step run=1793



.step run=1794



.step run=1795



.step run=1796



.step run=1797



.step run=1798



.step run=1799



.step run=1800



.step run=1801



.step run=1802



.step run=1803



.step run=1804



.step run=1805



.step run=1806



.step run=1807



.step run=1808



.step run=1809



.step run=1810



.step run=1811



.step run=1812



.step run=1813



.step run=1814



.step run=1815



.step run=1816



.step run=1817



.step run=1818



.step run=1819



.step run=1820



.step run=1821



.step run=1822



.step run=1823



.step run=1824



.step run=1825



.step run=1826



.step run=1827



.step run=1828



.step run=1829



.step run=1830



.step run=1831



.step run=1832



.step run=1833



.step run=1834



.step run=1835



.step run=1836



.step run=1837



.step run=1838



.step run=1839



.step run=1840



.step run=1841



.step run=1842



.step run=1843



.step run=1844



.step run=1845



.step run=1846



.step run=1847



.step run=1848



.step run=1849



.step run=1850



.step run=1851



.step run=1852



.step run=1853



.step run=1854



.step run=1855



.step run=1856



.step run=1857



.step run=1858



.step run=1859



.step run=1860



.step run=1861



.step run=1862



.step run=1863



.step run=1864



.step run=1865



.step run=1866



.step run=1867



.step run=1868



.step run=1869



.step run=1870



.step run=1871



.step run=1872



.step run=1873



.step run=1874



.step run=1875



.step run=1876



.step run=1877



.step run=1878



.step run=1879



.step run=1880



.step run=1881



.step run=1882



.step run=1883



.step run=1884



.step run=1885



.step run=1886



.step run=1887



.step run=1888



.step run=1889



.step run=1890



.step run=1891



.step run=1892



.step run=1893



.step run=1894



.step run=1895



.step run=1896



.step run=1897



.step run=1898



.step run=1899



.step run=1900



.step run=1901



.step run=1902



.step run=1903



.step run=1904



.step run=1905



.step run=1906



.step run=1907



.step run=1908



.step run=1909



.step run=1910



.step run=1911



.step run=1912



.step run=1913



.step run=1914



.step run=1915



.step run=1916



.step run=1917



.step run=1918



.step run=1919



.step run=1920



.step run=1921



.step run=1922



.step run=1923



.step run=1924



.step run=1925



.step run=1926



.step run=1927



.step run=1928



.step run=1929



.step run=1930



.step run=1931



.step run=1932



.step run=1933



.step run=1934



.step run=1935



.step run=1936



.step run=1937



.step run=1938



.step run=1939



.step run=1940



.step run=1941



.step run=1942



.step run=1943



.step run=1944



.step run=1945



.step run=1946



.step run=1947



.step run=1948



.step run=1949



.step run=1950



.step run=1951



.step run=1952



.step run=1953



.step run=1954



.step run=1955



.step run=1956



.step run=1957



.step run=1958



.step run=1959



.step run=1960



.step run=1961



.step run=1962



.step run=1963



.step run=1964



.step run=1965



.step run=1966



.step run=1967



.step run=1968



.step run=1969



.step run=1970



.step run=1971



.step run=1972



.step run=1973



.step run=1974



.step run=1975



.step run=1976



.step run=1977



.step run=1978



.step run=1979



.step run=1980



.step run=1981



.step run=1982



.step run=1983



.step run=1984



.step run=1985



.step run=1986



.step run=1987



.step run=1988



.step run=1989



.step run=1990



.step run=1991



.step run=1992



.step run=1993



.step run=1994



.step run=1995



.step run=1996



.step run=1997



.step run=1998



.step run=1999



.step run=2000



.step run=2001



.step run=2002



.step run=2003



.step run=2004



.step run=2005



.step run=2006



.step run=2007



.step run=2008



.step run=2009



.step run=2010



.step run=2011



.step run=2012



.step run=2013



.step run=2014



.step run=2015



.step run=2016



.step run=2017



.step run=2018



.step run=2019



.step run=2020



.step run=2021



.step run=2022



.step run=2023



.step run=2024



.step run=2025



.step run=2026



.step run=2027



.step run=2028



.step run=2029



.step run=2030



.step run=2031



.step run=2032



.step run=2033



.step run=2034



.step run=2035



.step run=2036



.step run=2037



.step run=2038



.step run=2039



.step run=2040



.step run=2041



.step run=2042



.step run=2043



.step run=2044



.step run=2045



.step run=2046



.step run=2047



.step run=2048



.step run=2049



.step run=2050



.step run=2051



.step run=2052



.step run=2053



.step run=2054



.step run=2055



.step run=2056



.step run=2057



.step run=2058



.step run=2059



.step run=2060



.step run=2061



.step run=2062



.step run=2063



.step run=2064



.step run=2065



.step run=2066



.step run=2067



.step run=2068



.step run=2069



.step run=2070



.step run=2071



.step run=2072



.step run=2073



.step run=2074



.step run=2075



.step run=2076



.step run=2077



.step run=2078



.step run=2079



.step run=2080



.step run=2081



.step run=2082



.step run=2083



.step run=2084



.step run=2085



.step run=2086



.step run=2087



.step run=2088



.step run=2089



.step run=2090



.step run=2091



.step run=2092



.step run=2093



.step run=2094



.step run=2095



.step run=2096



.step run=2097



.step run=2098



.step run=2099



.step run=2100



.step run=2101



.step run=2102



.step run=2103



.step run=2104



.step run=2105



.step run=2106



.step run=2107



.step run=2108



.step run=2109



.step run=2110



.step run=2111



.step run=2112



.step run=2113



.step run=2114



.step run=2115



.step run=2116



.step run=2117



.step run=2118



.step run=2119



.step run=2120



.step run=2121



.step run=2122



.step run=2123



.step run=2124



.step run=2125



.step run=2126



.step run=2127



.step run=2128



.step run=2129



.step run=2130



.step run=2131



.step run=2132



.step run=2133



.step run=2134



.step run=2135



.step run=2136



.step run=2137



.step run=2138



.step run=2139



.step run=2140



.step run=2141



.step run=2142



.step run=2143



.step run=2144



.step run=2145



.step run=2146



.step run=2147



.step run=2148



.step run=2149



.step run=2150



.step run=2151



.step run=2152



.step run=2153



.step run=2154



.step run=2155



.step run=2156



.step run=2157



.step run=2158



.step run=2159



.step run=2160



.step run=2161



.step run=2162



.step run=2163



.step run=2164



.step run=2165



.step run=2166



.step run=2167



.step run=2168



.step run=2169



.step run=2170



.step run=2171



.step run=2172



.step run=2173



.step run=2174



.step run=2175



.step run=2176



.step run=2177



.step run=2178



.step run=2179



.step run=2180



.step run=2181



.step run=2182



.step run=2183



.step run=2184



.step run=2185



.step run=2186



.step run=2187



.step run=2188



.step run=2189



.step run=2190



.step run=2191



.step run=2192



.step run=2193



.step run=2194



.step run=2195



.step run=2196



.step run=2197



.step run=2198



.step run=2199



.step run=2200



.step run=2201



.step run=2202



.step run=2203



.step run=2204



.step run=2205



.step run=2206



.step run=2207



.step run=2208



.step run=2209



.step run=2210



.step run=2211



.step run=2212



.step run=2213



.step run=2214



.step run=2215



.step run=2216



.step run=2217



.step run=2218



.step run=2219



.step run=2220



.step run=2221



.step run=2222



.step run=2223



.step run=2224



.step run=2225



.step run=2226



.step run=2227



.step run=2228



.step run=2229



.step run=2230



.step run=2231



.step run=2232



.step run=2233



.step run=2234



.step run=2235



.step run=2236



.step run=2237



.step run=2238



.step run=2239



.step run=2240



.step run=2241



.step run=2242



.step run=2243



.step run=2244



.step run=2245



.step run=2246



.step run=2247



.step run=2248



.step run=2249



.step run=2250



.step run=2251



.step run=2252



.step run=2253



.step run=2254



.step run=2255



.step run=2256



.step run=2257



.step run=2258



.step run=2259



.step run=2260



.step run=2261



.step run=2262



.step run=2263



.step run=2264



.step run=2265



.step run=2266



.step run=2267



.step run=2268



.step run=2269



.step run=2270



.step run=2271



.step run=2272



.step run=2273



.step run=2274



.step run=2275



.step run=2276



.step run=2277



.step run=2278



.step run=2279



.step run=2280



.step run=2281



.step run=2282



.step run=2283



.step run=2284



.step run=2285



.step run=2286



.step run=2287



.step run=2288



.step run=2289



.step run=2290



.step run=2291



.step run=2292



.step run=2293



.step run=2294



.step run=2295



.step run=2296



.step run=2297



.step run=2298



.step run=2299



.step run=2300



.step run=2301



.step run=2302



.step run=2303



.step run=2304



.step run=2305



.step run=2306



.step run=2307



.step run=2308



.step run=2309



.step run=2310



.step run=2311



.step run=2312



.step run=2313



.step run=2314



.step run=2315



.step run=2316



.step run=2317



.step run=2318



.step run=2319



.step run=2320



.step run=2321



.step run=2322



.step run=2323



.step run=2324



.step run=2325



.step run=2326



.step run=2327



.step run=2328



.step run=2329



.step run=2330



.step run=2331



.step run=2332



.step run=2333



.step run=2334



.step run=2335



.step run=2336



.step run=2337



.step run=2338



.step run=2339



.step run=2340



.step run=2341



.step run=2342



.step run=2343



.step run=2344



.step run=2345



.step run=2346



.step run=2347



.step run=2348



.step run=2349



.step run=2350



.step run=2351



.step run=2352



.step run=2353



.step run=2354



.step run=2355



.step run=2356



.step run=2357



.step run=2358



.step run=2359



.step run=2360



.step run=2361



.step run=2362



.step run=2363



.step run=2364



.step run=2365



.step run=2366



.step run=2367



.step run=2368



.step run=2369



.step run=2370



.step run=2371



.step run=2372



.step run=2373



.step run=2374



.step run=2375



.step run=2376



.step run=2377



.step run=2378



.step run=2379



.step run=2380



.step run=2381



.step run=2382



.step run=2383



.step run=2384



.step run=2385



.step run=2386



.step run=2387



.step run=2388



.step run=2389



.step run=2390



.step run=2391



.step run=2392



.step run=2393



.step run=2394



.step run=2395



.step run=2396



.step run=2397



.step run=2398



.step run=2399



.step run=2400



.step run=2401



.step run=2402



.step run=2403



.step run=2404



.step run=2405



.step run=2406



.step run=2407



.step run=2408



.step run=2409



.step run=2410



.step run=2411



.step run=2412



.step run=2413



.step run=2414



.step run=2415



.step run=2416



.step run=2417



.step run=2418



.step run=2419



.step run=2420



.step run=2421



.step run=2422



.step run=2423



.step run=2424



.step run=2425



.step run=2426



.step run=2427



.step run=2428



.step run=2429



.step run=2430



.step run=2431



.step run=2432



.step run=2433



.step run=2434



.step run=2435



.step run=2436



.step run=2437



.step run=2438



.step run=2439



.step run=2440



.step run=2441



.step run=2442



.step run=2443



.step run=2444



.step run=2445



.step run=2446



.step run=2447



.step run=2448



.step run=2449



.step run=2450



.step run=2451



.step run=2452



.step run=2453



.step run=2454



.step run=2455



.step run=2456



.step run=2457



.step run=2458



.step run=2459



.step run=2460



.step run=2461



.step run=2462



.step run=2463



.step run=2464



.step run=2465



.step run=2466



.step run=2467



.step run=2468



.step run=2469



.step run=2470



.step run=2471



.step run=2472



.step run=2473



.step run=2474



.step run=2475



.step run=2476



.step run=2477



.step run=2478



.step run=2479



.step run=2480



.step run=2481



.step run=2482



.step run=2483



.step run=2484



.step run=2485



.step run=2486



.step run=2487



.step run=2488



.step run=2489



.step run=2490



.step run=2491



.step run=2492



.step run=2493



.step run=2494



.step run=2495



.step run=2496



.step run=2497



.step run=2498



.step run=2499



.step run=2500



.step run=2501



.step run=2502



.step run=2503



.step run=2504



.step run=2505



.step run=2506



.step run=2507



.step run=2508



.step run=2509



.step run=2510



.step run=2511



.step run=2512



.step run=2513



.step run=2514



.step run=2515



.step run=2516



.step run=2517



.step run=2518



.step run=2519



.step run=2520



.step run=2521



.step run=2522



.step run=2523



.step run=2524



.step run=2525



.step run=2526



.step run=2527



.step run=2528



.step run=2529



.step run=2530



.step run=2531



.step run=2532



.step run=2533



.step run=2534



.step run=2535



.step run=2536



.step run=2537



.step run=2538



.step run=2539



.step run=2540



.step run=2541



.step run=2542



.step run=2543



.step run=2544



.step run=2545



.step run=2546



.step run=2547



.step run=2548



.step run=2549



.step run=2550



.step run=2551



.step run=2552



.step run=2553



.step run=2554



.step run=2555



.step run=2556



.step run=2557



.step run=2558



.step run=2559



.step run=2560



.step run=2561



.step run=2562



.step run=2563



.step run=2564



.step run=2565



.step run=2566



.step run=2567



.step run=2568



.step run=2569



.step run=2570



.step run=2571



.step run=2572



.step run=2573



.step run=2574



.step run=2575



.step run=2576



.step run=2577



.step run=2578



.step run=2579



.step run=2580



.step run=2581



.step run=2582



.step run=2583



.step run=2584



.step run=2585



.step run=2586



.step run=2587



.step run=2588



.step run=2589



.step run=2590



.step run=2591



.step run=2592



.step run=2593



.step run=2594



.step run=2595



.step run=2596



.step run=2597



.step run=2598



.step run=2599



.step run=2600



.step run=2601



.step run=2602



.step run=2603



.step run=2604



.step run=2605



.step run=2606



.step run=2607



.step run=2608



.step run=2609



.step run=2610



.step run=2611



.step run=2612



.step run=2613



.step run=2614



.step run=2615



.step run=2616



.step run=2617



.step run=2618



.step run=2619



.step run=2620



.step run=2621



.step run=2622



.step run=2623



.step run=2624



.step run=2625



.step run=2626



.step run=2627



.step run=2628



.step run=2629



.step run=2630



.step run=2631



.step run=2632



.step run=2633



.step run=2634



.step run=2635



.step run=2636



.step run=2637



.step run=2638



.step run=2639



.step run=2640



.step run=2641



.step run=2642



.step run=2643



.step run=2644



.step run=2645



.step run=2646



.step run=2647



.step run=2648



.step run=2649



.step run=2650



.step run=2651



.step run=2652



.step run=2653



.step run=2654



.step run=2655



.step run=2656



.step run=2657



.step run=2658



.step run=2659



.step run=2660



.step run=2661



.step run=2662



.step run=2663



.step run=2664



.step run=2665



.step run=2666



.step run=2667



.step run=2668



.step run=2669



.step run=2670



.step run=2671



.step run=2672



.step run=2673



.step run=2674



.step run=2675



.step run=2676



.step run=2677



.step run=2678



.step run=2679



.step run=2680



.step run=2681



.step run=2682



.step run=2683



.step run=2684



.step run=2685



.step run=2686



.step run=2687



.step run=2688



.step run=2689



.step run=2690



.step run=2691



.step run=2692



.step run=2693



.step run=2694



.step run=2695



.step run=2696



.step run=2697



.step run=2698



.step run=2699



.step run=2700



.step run=2701



.step run=2702



.step run=2703



.step run=2704



.step run=2705



.step run=2706



.step run=2707



.step run=2708



.step run=2709



.step run=2710



.step run=2711



.step run=2712



.step run=2713



.step run=2714



.step run=2715



.step run=2716



.step run=2717



.step run=2718



.step run=2719



.step run=2720



.step run=2721



.step run=2722



.step run=2723



.step run=2724



.step run=2725



.step run=2726



.step run=2727



.step run=2728



.step run=2729



.step run=2730



.step run=2731



.step run=2732



.step run=2733



.step run=2734



.step run=2735



.step run=2736



.step run=2737



.step run=2738



.step run=2739



.step run=2740



.step run=2741



.step run=2742



.step run=2743



.step run=2744



.step run=2745



.step run=2746



.step run=2747



.step run=2748



.step run=2749



.step run=2750



.step run=2751



.step run=2752



.step run=2753



.step run=2754



.step run=2755



.step run=2756



.step run=2757



.step run=2758



.step run=2759



.step run=2760



.step run=2761



.step run=2762



.step run=2763



.step run=2764



.step run=2765



.step run=2766



.step run=2767



.step run=2768



.step run=2769



.step run=2770



.step run=2771



.step run=2772



.step run=2773



.step run=2774



.step run=2775



.step run=2776



.step run=2777



.step run=2778



.step run=2779



.step run=2780



.step run=2781



.step run=2782



.step run=2783



.step run=2784



.step run=2785



.step run=2786



.step run=2787



.step run=2788



.step run=2789



.step run=2790



.step run=2791



.step run=2792



.step run=2793



.step run=2794



.step run=2795



.step run=2796



.step run=2797



.step run=2798



.step run=2799



.step run=2800



.step run=2801



.step run=2802



.step run=2803



.step run=2804



.step run=2805



.step run=2806



.step run=2807



.step run=2808



.step run=2809



.step run=2810



.step run=2811



.step run=2812



.step run=2813



.step run=2814



.step run=2815



.step run=2816



.step run=2817



.step run=2818



.step run=2819



.step run=2820



.step run=2821



.step run=2822



.step run=2823



.step run=2824



.step run=2825



.step run=2826



.step run=2827



.step run=2828



.step run=2829



.step run=2830



.step run=2831



.step run=2832



.step run=2833



.step run=2834



.step run=2835



.step run=2836



.step run=2837



.step run=2838



.step run=2839



.step run=2840



.step run=2841



.step run=2842



.step run=2843



.step run=2844



.step run=2845



.step run=2846



.step run=2847



.step run=2848



.step run=2849



.step run=2850



.step run=2851



.step run=2852



.step run=2853



.step run=2854



.step run=2855



.step run=2856



.step run=2857



.step run=2858



.step run=2859



.step run=2860



.step run=2861



.step run=2862



.step run=2863



.step run=2864



.step run=2865



.step run=2866



.step run=2867



.step run=2868



.step run=2869



.step run=2870



.step run=2871



.step run=2872



.step run=2873



.step run=2874



.step run=2875



.step run=2876



.step run=2877



.step run=2878



.step run=2879



.step run=2880



.step run=2881



.step run=2882



.step run=2883



.step run=2884



.step run=2885



.step run=2886



.step run=2887



.step run=2888



.step run=2889



.step run=2890



.step run=2891



.step run=2892



.step run=2893



.step run=2894



.step run=2895



.step run=2896



.step run=2897



.step run=2898



.step run=2899



.step run=2900



.step run=2901



.step run=2902



.step run=2903



.step run=2904



.step run=2905



.step run=2906



.step run=2907



.step run=2908



.step run=2909



.step run=2910



.step run=2911



.step run=2912



.step run=2913



.step run=2914



.step run=2915



.step run=2916



.step run=2917



.step run=2918



.step run=2919



.step run=2920



.step run=2921



.step run=2922



.step run=2923



.step run=2924



.step run=2925



.step run=2926



.step run=2927



.step run=2928



.step run=2929



.step run=2930



.step run=2931



.step run=2932



.step run=2933



.step run=2934



.step run=2935



.step run=2936



.step run=2937



.step run=2938



.step run=2939



.step run=2940



.step run=2941



.step run=2942



.step run=2943



.step run=2944



.step run=2945



.step run=2946



.step run=2947



.step run=2948



.step run=2949



.step run=2950



.step run=2951



.step run=2952



.step run=2953



.step run=2954



.step run=2955



.step run=2956



.step run=2957



.step run=2958



.step run=2959



.step run=2960



.step run=2961



.step run=2962



.step run=2963



.step run=2964



.step run=2965



.step run=2966



.step run=2967



.step run=2968



.step run=2969



.step run=2970



.step run=2971



.step run=2972



.step run=2973



.step run=2974



.step run=2975



.step run=2976



.step run=2977



.step run=2978



.step run=2979



.step run=2980



.step run=2981



.step run=2982



.step run=2983



.step run=2984



.step run=2985



.step run=2986



.step run=2987



.step run=2988



.step run=2989



.step run=2990



.step run=2991



.step run=2992



.step run=2993



.step run=2994



.step run=2995



.step run=2996



.step run=2997



.step run=2998



.step run=2999
tnom = 27
temp = 27
method = modified trap
.step run=3000


Measurement: vout
  step	AVG(vref*(1+(r65*r75/(r65+r75))/r15) + iadj*(r65*r75/(r65+r75)))	FROM	TO
     1	3.32075	0	1e-09
     2	3.331635346	0	1e-09
     3	3.298983757	0	1e-09
     4	3.363886798	0	1e-09
     5	3.296566825	0	1e-09
     6	3.320804327	0	1e-09
     7	3.312432292	0	1e-09
     8	3.356264879	0	1e-09
     9	3.322330325	0	1e-09
    10	3.332841538	0	1e-09
    11	3.310101795	0	1e-09
    12	3.364901142	0	1e-09
    13	3.306490948	0	1e-09
    14	3.285837019	0	1e-09
    15	3.342007179	0	1e-09
    16	3.316695635	0	1e-09
    17	3.355275505	0	1e-09
    18	3.369576128	0	1e-09
    19	3.313227969	0	1e-09
    20	3.335593376	0	1e-09
    21	3.307950185	0	1e-09
    22	3.318574631	0	1e-09
    23	3.334637173	0	1e-09
    24	3.281780345	0	1e-09
    25	3.33720871	0	1e-09
    26	3.318577866	0	1e-09
    27	3.349476094	0	1e-09
    28	3.335680255	0	1e-09
    29	3.329714765	0	1e-09
    30	3.296294754	0	1e-09
    31	3.303920701	0	1e-09
    32	3.319561498	0	1e-09
    33	3.356420233	0	1e-09
    34	3.344924817	0	1e-09
    35	3.296715693	0	1e-09
    36	3.32162201	0	1e-09
    37	3.326845569	0	1e-09
    38	3.270744946	0	1e-09
    39	3.283160545	0	1e-09
    40	3.293585941	0	1e-09
    41	3.35185626	0	1e-09
    42	3.351984715	0	1e-09
    43	3.289119641	0	1e-09
    44	3.331418294	0	1e-09
    45	3.315182999	0	1e-09
    46	3.294369553	0	1e-09
    47	3.308642437	0	1e-09
    48	3.286595368	0	1e-09
    49	3.309512617	0	1e-09
    50	3.361521784	0	1e-09
    51	3.295897187	0	1e-09
    52	3.318788438	0	1e-09
    53	3.298491224	0	1e-09
    54	3.317010458	0	1e-09
    55	3.334691363	0	1e-09
    56	3.310392001	0	1e-09
    57	3.336127531	0	1e-09
    58	3.312745692	0	1e-09
    59	3.361240178	0	1e-09
    60	3.335823116	0	1e-09
    61	3.341043843	0	1e-09
    62	3.306554792	0	1e-09
    63	3.329030059	0	1e-09
    64	3.346528506	0	1e-09
    65	3.332795648	0	1e-09
    66	3.299875719	0	1e-09
    67	3.330835231	0	1e-09
    68	3.302324455	0	1e-09
    69	3.356039372	0	1e-09
    70	3.295786933	0	1e-09
    71	3.382355856	0	1e-09
    72	3.330789574	0	1e-09
    73	3.314466507	0	1e-09
    74	3.302264303	0	1e-09
    75	3.324608926	0	1e-09
    76	3.312610443	0	1e-09
    77	3.322064105	0	1e-09
    78	3.266959751	0	1e-09
    79	3.32895131	0	1e-09
    80	3.246464128	0	1e-09
    81	3.334279511	0	1e-09
    82	3.286398376	0	1e-09
    83	3.372568448	0	1e-09
    84	3.322356162	0	1e-09
    85	3.278795023	0	1e-09
    86	3.313711278	0	1e-09
    87	3.281482755	0	1e-09
    88	3.291741528	0	1e-09
    89	3.307000028	0	1e-09
    90	3.340661721	0	1e-09
    91	3.359100744	0	1e-09
    92	3.298531502	0	1e-09
    93	3.318650149	0	1e-09
    94	3.290170027	0	1e-09
    95	3.280232088	0	1e-09
    96	3.342318734	0	1e-09
    97	3.305704854	0	1e-09
    98	3.351940239	0	1e-09
    99	3.353393152	0	1e-09
   100	3.293734501	0	1e-09
   101	3.304263997	0	1e-09
   102	3.340359873	0	1e-09
   103	3.312513599	0	1e-09
   104	3.301596955	0	1e-09
   105	3.307219652	0	1e-09
   106	3.315136591	0	1e-09
   107	3.293463088	0	1e-09
   108	3.295534071	0	1e-09
   109	3.292864666	0	1e-09
   110	3.34933635	0	1e-09
   111	3.278036088	0	1e-09
   112	3.377376178	0	1e-09
   113	3.333765338	0	1e-09
   114	3.300810487	0	1e-09
   115	3.326765914	0	1e-09
   116	3.323134048	0	1e-09
   117	3.360012481	0	1e-09
   118	3.296655361	0	1e-09
   119	3.333768867	0	1e-09
   120	3.346784486	0	1e-09
   121	3.319625671	0	1e-09
   122	3.308666633	0	1e-09
   123	3.335514688	0	1e-09
   124	3.349513998	0	1e-09
   125	3.326434426	0	1e-09
   126	3.343516024	0	1e-09
   127	3.346889497	0	1e-09
   128	3.338754489	0	1e-09
   129	3.314820649	0	1e-09
   130	3.342205422	0	1e-09
   131	3.346486731	0	1e-09
   132	3.356945574	0	1e-09
   133	3.340511657	0	1e-09
   134	3.316632312	0	1e-09
   135	3.316532643	0	1e-09
   136	3.326313516	0	1e-09
   137	3.341623691	0	1e-09
   138	3.296089878	0	1e-09
   139	3.313620955	0	1e-09
   140	3.332250007	0	1e-09
   141	3.346784286	0	1e-09
   142	3.310028295	0	1e-09
   143	3.342764506	0	1e-09
   144	3.309227874	0	1e-09
   145	3.33457622	0	1e-09
   146	3.289341128	0	1e-09
   147	3.326568063	0	1e-09
   148	3.371870353	0	1e-09
   149	3.311021994	0	1e-09
   150	3.307778376	0	1e-09
   151	3.35634982	0	1e-09
   152	3.30099963	0	1e-09
   153	3.292701446	0	1e-09
   154	3.32225194	0	1e-09
   155	3.304804725	0	1e-09
   156	3.34539987	0	1e-09
   157	3.310575972	0	1e-09
   158	3.392022783	0	1e-09
   159	3.30079246	0	1e-09
   160	3.356804994	0	1e-09
   161	3.322243225	0	1e-09
   162	3.315976259	0	1e-09
   163	3.345924013	0	1e-09
   164	3.298834968	0	1e-09
   165	3.333934457	0	1e-09
   166	3.316893734	0	1e-09
   167	3.332108249	0	1e-09
   168	3.269402977	0	1e-09
   169	3.321678725	0	1e-09
   170	3.29920602	0	1e-09
   171	3.333265476	0	1e-09
   172	3.339065385	0	1e-09
   173	3.324342007	0	1e-09
   174	3.332143386	0	1e-09
   175	3.354204821	0	1e-09
   176	3.355195076	0	1e-09
   177	3.316135118	0	1e-09
   178	3.318864345	0	1e-09
   179	3.286731635	0	1e-09
   180	3.305557874	0	1e-09
   181	3.325753164	0	1e-09
   182	3.291790207	0	1e-09
   183	3.370128915	0	1e-09
   184	3.302597233	0	1e-09
   185	3.292762167	0	1e-09
   186	3.292054927	0	1e-09
   187	3.337228258	0	1e-09
   188	3.321743619	0	1e-09
   189	3.344434932	0	1e-09
   190	3.296969239	0	1e-09
   191	3.338403504	0	1e-09
   192	3.34123436	0	1e-09
   193	3.338578869	0	1e-09
   194	3.320481495	0	1e-09
   195	3.338407303	0	1e-09
   196	3.339216801	0	1e-09
   197	3.289242241	0	1e-09
   198	3.288355733	0	1e-09
   199	3.322093438	0	1e-09
   200	3.306843048	0	1e-09
   201	3.307756276	0	1e-09
   202	3.319270784	0	1e-09
   203	3.334246194	0	1e-09
   204	3.304423009	0	1e-09
   205	3.311511066	0	1e-09
   206	3.346327487	0	1e-09
   207	3.292087042	0	1e-09
   208	3.307150054	0	1e-09
   209	3.306835463	0	1e-09
   210	3.313219388	0	1e-09
   211	3.331444367	0	1e-09
   212	3.345443243	0	1e-09
   213	3.287241543	0	1e-09
   214	3.324062606	0	1e-09
   215	3.324355026	0	1e-09
   216	3.301032786	0	1e-09
   217	3.343721343	0	1e-09
   218	3.351100044	0	1e-09
   219	3.349881339	0	1e-09
   220	3.33181807	0	1e-09
   221	3.328770975	0	1e-09
   222	3.299009378	0	1e-09
   223	3.324662635	0	1e-09
   224	3.336469905	0	1e-09
   225	3.304919293	0	1e-09
   226	3.306513008	0	1e-09
   227	3.311316548	0	1e-09
   228	3.320480081	0	1e-09
   229	3.295828999	0	1e-09
   230	3.338224181	0	1e-09
   231	3.308197739	0	1e-09
   232	3.348488378	0	1e-09
   233	3.290639812	0	1e-09
   234	3.289344439	0	1e-09
   235	3.327398336	0	1e-09
   236	3.316101766	0	1e-09
   237	3.34759419	0	1e-09
   238	3.298150847	0	1e-09
   239	3.354038175	0	1e-09
   240	3.317830647	0	1e-09
   241	3.323840929	0	1e-09
   242	3.324236125	0	1e-09
   243	3.340962284	0	1e-09
   244	3.347307591	0	1e-09
   245	3.323070129	0	1e-09
   246	3.291949934	0	1e-09
   247	3.356737785	0	1e-09
   248	3.289556664	0	1e-09
   249	3.333386431	0	1e-09
   250	3.37136838	0	1e-09
   251	3.340791052	0	1e-09
   252	3.273669275	0	1e-09
   253	3.352814936	0	1e-09
   254	3.299933921	0	1e-09
   255	3.336066939	0	1e-09
   256	3.329472207	0	1e-09
   257	3.373546963	0	1e-09
   258	3.334669283	0	1e-09
   259	3.34422602	0	1e-09
   260	3.327778413	0	1e-09
   261	3.273899353	0	1e-09
   262	3.272213754	0	1e-09
   263	3.264613818	0	1e-09
   264	3.330955442	0	1e-09
   265	3.29984323	0	1e-09
   266	3.312745472	0	1e-09
   267	3.340521345	0	1e-09
   268	3.300396803	0	1e-09
   269	3.362211977	0	1e-09
   270	3.325159052	0	1e-09
   271	3.348392554	0	1e-09
   272	3.309414111	0	1e-09
   273	3.364491228	0	1e-09
   274	3.341056101	0	1e-09
   275	3.319274377	0	1e-09
   276	3.317965868	0	1e-09
   277	3.331856494	0	1e-09
   278	3.305461671	0	1e-09
   279	3.252978433	0	1e-09
   280	3.337876999	0	1e-09
   281	3.353147359	0	1e-09
   282	3.358209564	0	1e-09
   283	3.340192393	0	1e-09
   284	3.341749827	0	1e-09
   285	3.333084018	0	1e-09
   286	3.342373907	0	1e-09
   287	3.297374872	0	1e-09
   288	3.346317072	0	1e-09
   289	3.298891627	0	1e-09
   290	3.304919013	0	1e-09
   291	3.341375402	0	1e-09
   292	3.279998237	0	1e-09
   293	3.371402175	0	1e-09
   294	3.282907737	0	1e-09
   295	3.341865602	0	1e-09
   296	3.273692262	0	1e-09
   297	3.255725392	0	1e-09
   298	3.27944679	0	1e-09
   299	3.33109305	0	1e-09
   300	3.301053341	0	1e-09
   301	3.331011552	0	1e-09
   302	3.283231549	0	1e-09
   303	3.357696999	0	1e-09
   304	3.285596162	0	1e-09
   305	3.322615603	0	1e-09
   306	3.325241063	0	1e-09
   307	3.35241275	0	1e-09
   308	3.362568576	0	1e-09
   309	3.371999445	0	1e-09
   310	3.352525978	0	1e-09
   311	3.320964413	0	1e-09
   312	3.324833297	0	1e-09
   313	3.369792805	0	1e-09
   314	3.310886564	0	1e-09
   315	3.354225166	0	1e-09
   316	3.327535889	0	1e-09
   317	3.283967273	0	1e-09
   318	3.344081576	0	1e-09
   319	3.353104246	0	1e-09
   320	3.356912879	0	1e-09
   321	3.253103006	0	1e-09
   322	3.349019789	0	1e-09
   323	3.312339888	0	1e-09
   324	3.31675655	0	1e-09
   325	3.317786661	0	1e-09
   326	3.296797928	0	1e-09
   327	3.352963624	0	1e-09
   328	3.385759303	0	1e-09
   329	3.314196456	0	1e-09
   330	3.305405735	0	1e-09
   331	3.334804545	0	1e-09
   332	3.332478598	0	1e-09
   333	3.331756802	0	1e-09
   334	3.289747489	0	1e-09
   335	3.313474196	0	1e-09
   336	3.365003204	0	1e-09
   337	3.300895923	0	1e-09
   338	3.302212948	0	1e-09
   339	3.311860992	0	1e-09
   340	3.334689424	0	1e-09
   341	3.375168395	0	1e-09
   342	3.343482573	0	1e-09
   343	3.274421222	0	1e-09
   344	3.375857006	0	1e-09
   345	3.302013023	0	1e-09
   346	3.340964501	0	1e-09
   347	3.37130817	0	1e-09
   348	3.284113826	0	1e-09
   349	3.314640949	0	1e-09
   350	3.305013301	0	1e-09
   351	3.376724694	0	1e-09
   352	3.317043751	0	1e-09
   353	3.275223785	0	1e-09
   354	3.309140581	0	1e-09
   355	3.343920907	0	1e-09
   356	3.347712252	0	1e-09
   357	3.310309771	0	1e-09
   358	3.265773535	0	1e-09
   359	3.329357457	0	1e-09
   360	3.32729009	0	1e-09
   361	3.402210271	0	1e-09
   362	3.332985195	0	1e-09
   363	3.351818884	0	1e-09
   364	3.306977206	0	1e-09
   365	3.314184734	0	1e-09
   366	3.335877894	0	1e-09
   367	3.315881461	0	1e-09
   368	3.302866366	0	1e-09
   369	3.310078547	0	1e-09
   370	3.330912573	0	1e-09
   371	3.356620344	0	1e-09
   372	3.358641106	0	1e-09
   373	3.338003574	0	1e-09
   374	3.3416089	0	1e-09
   375	3.269451854	0	1e-09
   376	3.308285796	0	1e-09
   377	3.285938944	0	1e-09
   378	3.31531716	0	1e-09
   379	3.348219727	0	1e-09
   380	3.358743553	0	1e-09
   381	3.283672649	0	1e-09
   382	3.280006255	0	1e-09
   383	3.275752798	0	1e-09
   384	3.319281388	0	1e-09
   385	3.314593843	0	1e-09
   386	3.343390972	0	1e-09
   387	3.356426548	0	1e-09
   388	3.294711457	0	1e-09
   389	3.337298942	0	1e-09
   390	3.294579795	0	1e-09
   391	3.323090084	0	1e-09
   392	3.322914151	0	1e-09
   393	3.334751602	0	1e-09
   394	3.334343721	0	1e-09
   395	3.341726679	0	1e-09
   396	3.333962267	0	1e-09
   397	3.314761687	0	1e-09
   398	3.336106117	0	1e-09
   399	3.291957184	0	1e-09
   400	3.328144041	0	1e-09
   401	3.309462338	0	1e-09
   402	3.330846519	0	1e-09
   403	3.307796801	0	1e-09
   404	3.367269229	0	1e-09
   405	3.334841723	0	1e-09
   406	3.274912563	0	1e-09
   407	3.279652049	0	1e-09
   408	3.331020426	0	1e-09
   409	3.348729013	0	1e-09
   410	3.327777337	0	1e-09
   411	3.340685934	0	1e-09
   412	3.288569134	0	1e-09
   413	3.321827798	0	1e-09
   414	3.342133695	0	1e-09
   415	3.294118545	0	1e-09
   416	3.329508006	0	1e-09
   417	3.305425556	0	1e-09
   418	3.337241626	0	1e-09
   419	3.368206056	0	1e-09
   420	3.277443819	0	1e-09
   421	3.303693329	0	1e-09
   422	3.321646187	0	1e-09
   423	3.329176418	0	1e-09
   424	3.303981493	0	1e-09
   425	3.351801393	0	1e-09
   426	3.32173429	0	1e-09
   427	3.318070248	0	1e-09
   428	3.295547721	0	1e-09
   429	3.321497364	0	1e-09
   430	3.348115213	0	1e-09
   431	3.355719805	0	1e-09
   432	3.294253882	0	1e-09
   433	3.345108331	0	1e-09
   434	3.364641644	0	1e-09
   435	3.320275208	0	1e-09
   436	3.339578707	0	1e-09
   437	3.325009819	0	1e-09
   438	3.322621542	0	1e-09
   439	3.364259701	0	1e-09
   440	3.345573251	0	1e-09
   441	3.358412037	0	1e-09
   442	3.307434859	0	1e-09
   443	3.287375621	0	1e-09
   444	3.347919801	0	1e-09
   445	3.35047805	0	1e-09
   446	3.331644767	0	1e-09
   447	3.35347923	0	1e-09
   448	3.374894086	0	1e-09
   449	3.311979011	0	1e-09
   450	3.354497769	0	1e-09
   451	3.293040952	0	1e-09
   452	3.257768415	0	1e-09
   453	3.310505153	0	1e-09
   454	3.332507085	0	1e-09
   455	3.307013418	0	1e-09
   456	3.30161745	0	1e-09
   457	3.353189959	0	1e-09
   458	3.316855784	0	1e-09
   459	3.305989651	0	1e-09
   460	3.326516371	0	1e-09
   461	3.316990936	0	1e-09
   462	3.277628992	0	1e-09
   463	3.332882899	0	1e-09
   464	3.354282408	0	1e-09
   465	3.32455838	0	1e-09
   466	3.287719735	0	1e-09
   467	3.359027935	0	1e-09
   468	3.351496358	0	1e-09
   469	3.299634113	0	1e-09
   470	3.277460849	0	1e-09
   471	3.347542437	0	1e-09
   472	3.354856066	0	1e-09
   473	3.341949746	0	1e-09
   474	3.304084116	0	1e-09
   475	3.305072898	0	1e-09
   476	3.356809875	0	1e-09
   477	3.317267504	0	1e-09
   478	3.364573195	0	1e-09
   479	3.352972507	0	1e-09
   480	3.305453388	0	1e-09
   481	3.341288505	0	1e-09
   482	3.32509127	0	1e-09
   483	3.291246464	0	1e-09
   484	3.282424494	0	1e-09
   485	3.352252735	0	1e-09
   486	3.388872248	0	1e-09
   487	3.3427854	0	1e-09
   488	3.312240088	0	1e-09
   489	3.31595059	0	1e-09
   490	3.264198358	0	1e-09
   491	3.303866641	0	1e-09
   492	3.318221157	0	1e-09
   493	3.341920139	0	1e-09
   494	3.336811242	0	1e-09
   495	3.3365908	0	1e-09
   496	3.33034215	0	1e-09
   497	3.326671091	0	1e-09
   498	3.343802919	0	1e-09
   499	3.306237591	0	1e-09
   500	3.294207449	0	1e-09
   501	3.3578544	0	1e-09
   502	3.303023112	0	1e-09
   503	3.28771441	0	1e-09
   504	3.334935214	0	1e-09
   505	3.276654142	0	1e-09
   506	3.291857363	0	1e-09
   507	3.308836482	0	1e-09
   508	3.315368837	0	1e-09
   509	3.334601929	0	1e-09
   510	3.31244905	0	1e-09
   511	3.352204089	0	1e-09
   512	3.338011814	0	1e-09
   513	3.318117269	0	1e-09
   514	3.349359597	0	1e-09
   515	3.321178778	0	1e-09
   516	3.314816544	0	1e-09
   517	3.377284467	0	1e-09
   518	3.357917066	0	1e-09
   519	3.34801828	0	1e-09
   520	3.286521945	0	1e-09
   521	3.294696822	0	1e-09
   522	3.293727774	0	1e-09
   523	3.355882386	0	1e-09
   524	3.290537336	0	1e-09
   525	3.303520477	0	1e-09
   526	3.327012336	0	1e-09
   527	3.27482943	0	1e-09
   528	3.303849142	0	1e-09
   529	3.323142581	0	1e-09
   530	3.337937265	0	1e-09
   531	3.296656758	0	1e-09
   532	3.338983045	0	1e-09
   533	3.339999011	0	1e-09
   534	3.348436801	0	1e-09
   535	3.330183295	0	1e-09
   536	3.274449656	0	1e-09
   537	3.323969654	0	1e-09
   538	3.305933288	0	1e-09
   539	3.337267623	0	1e-09
   540	3.304684797	0	1e-09
   541	3.348083442	0	1e-09
   542	3.312861395	0	1e-09
   543	3.327351422	0	1e-09
   544	3.31896386	0	1e-09
   545	3.343357701	0	1e-09
   546	3.291717056	0	1e-09
   547	3.335635048	0	1e-09
   548	3.396380449	0	1e-09
   549	3.320817181	0	1e-09
   550	3.35882141	0	1e-09
   551	3.345222503	0	1e-09
   552	3.349887696	0	1e-09
   553	3.337821793	0	1e-09
   554	3.311462935	0	1e-09
   555	3.361466349	0	1e-09
   556	3.326913107	0	1e-09
   557	3.316801518	0	1e-09
   558	3.33244387	0	1e-09
   559	3.346822967	0	1e-09
   560	3.330527441	0	1e-09
   561	3.331385223	0	1e-09
   562	3.303552923	0	1e-09
   563	3.278683643	0	1e-09
   564	3.318169974	0	1e-09
   565	3.319745942	0	1e-09
   566	3.321359309	0	1e-09
   567	3.31828069	0	1e-09
   568	3.382301295	0	1e-09
   569	3.340948841	0	1e-09
   570	3.305143641	0	1e-09
   571	3.29680856	0	1e-09
   572	3.32592306	0	1e-09
   573	3.328760592	0	1e-09
   574	3.284202434	0	1e-09
   575	3.274773812	0	1e-09
   576	3.382173228	0	1e-09
   577	3.324572165	0	1e-09
   578	3.306975582	0	1e-09
   579	3.350197835	0	1e-09
   580	3.324033449	0	1e-09
   581	3.329898996	0	1e-09
   582	3.346888912	0	1e-09
   583	3.340482949	0	1e-09
   584	3.318528272	0	1e-09
   585	3.345963082	0	1e-09
   586	3.299278825	0	1e-09
   587	3.376213025	0	1e-09
   588	3.295116444	0	1e-09
   589	3.360569502	0	1e-09
   590	3.327871802	0	1e-09
   591	3.320499726	0	1e-09
   592	3.321206539	0	1e-09
   593	3.361607719	0	1e-09
   594	3.324411645	0	1e-09
   595	3.315572428	0	1e-09
   596	3.38090282	0	1e-09
   597	3.296673183	0	1e-09
   598	3.341728337	0	1e-09
   599	3.292955536	0	1e-09
   600	3.326560245	0	1e-09
   601	3.318803232	0	1e-09
   602	3.320298955	0	1e-09
   603	3.309409858	0	1e-09
   604	3.340752229	0	1e-09
   605	3.267492803	0	1e-09
   606	3.306251872	0	1e-09
   607	3.296132418	0	1e-09
   608	3.298390116	0	1e-09
   609	3.314498493	0	1e-09
   610	3.316685397	0	1e-09
   611	3.295282812	0	1e-09
   612	3.385694879	0	1e-09
   613	3.347504982	0	1e-09
   614	3.316387595	0	1e-09
   615	3.331274903	0	1e-09
   616	3.296437047	0	1e-09
   617	3.281566098	0	1e-09
   618	3.347357595	0	1e-09
   619	3.359207994	0	1e-09
   620	3.296651913	0	1e-09
   621	3.310040565	0	1e-09
   622	3.340631014	0	1e-09
   623	3.31677493	0	1e-09
   624	3.347341323	0	1e-09
   625	3.235867779	0	1e-09
   626	3.298793397	0	1e-09
   627	3.360302326	0	1e-09
   628	3.298365196	0	1e-09
   629	3.336944686	0	1e-09
   630	3.358632692	0	1e-09
   631	3.309878362	0	1e-09
   632	3.310019535	0	1e-09
   633	3.282415035	0	1e-09
   634	3.317270716	0	1e-09
   635	3.319601963	0	1e-09
   636	3.295053943	0	1e-09
   637	3.347639773	0	1e-09
   638	3.352932699	0	1e-09
   639	3.322465577	0	1e-09
   640	3.323773537	0	1e-09
   641	3.347578544	0	1e-09
   642	3.328881091	0	1e-09
   643	3.346155563	0	1e-09
   644	3.294103909	0	1e-09
   645	3.228183303	0	1e-09
   646	3.357734517	0	1e-09
   647	3.302621494	0	1e-09
   648	3.300682443	0	1e-09
   649	3.318302933	0	1e-09
   650	3.29705087	0	1e-09
   651	3.321828011	0	1e-09
   652	3.321341081	0	1e-09
   653	3.357110108	0	1e-09
   654	3.325293305	0	1e-09
   655	3.323992835	0	1e-09
   656	3.30912088	0	1e-09
   657	3.292655255	0	1e-09
   658	3.388287611	0	1e-09
   659	3.345516066	0	1e-09
   660	3.317167118	0	1e-09
   661	3.322842463	0	1e-09
   662	3.331552027	0	1e-09
   663	3.378715101	0	1e-09
   664	3.319944952	0	1e-09
   665	3.335704659	0	1e-09
   666	3.344549005	0	1e-09
   667	3.282795753	0	1e-09
   668	3.325637584	0	1e-09
   669	3.374208884	0	1e-09
   670	3.286522348	0	1e-09
   671	3.322654541	0	1e-09
   672	3.295412053	0	1e-09
   673	3.321861342	0	1e-09
   674	3.260667614	0	1e-09
   675	3.346390996	0	1e-09
   676	3.308474434	0	1e-09
   677	3.28083399	0	1e-09
   678	3.314758012	0	1e-09
   679	3.290258447	0	1e-09
   680	3.281337234	0	1e-09
   681	3.309594755	0	1e-09
   682	3.363368576	0	1e-09
   683	3.319223858	0	1e-09
   684	3.290070643	0	1e-09
   685	3.314107534	0	1e-09
   686	3.301810467	0	1e-09
   687	3.29926924	0	1e-09
   688	3.358338052	0	1e-09
   689	3.301598538	0	1e-09
   690	3.346110601	0	1e-09
   691	3.324313814	0	1e-09
   692	3.269967893	0	1e-09
   693	3.28897381	0	1e-09
   694	3.334049044	0	1e-09
   695	3.307480731	0	1e-09
   696	3.319680481	0	1e-09
   697	3.27925949	0	1e-09
   698	3.318222408	0	1e-09
   699	3.300758085	0	1e-09
   700	3.314244278	0	1e-09
   701	3.335809104	0	1e-09
   702	3.343082058	0	1e-09
   703	3.3286027	0	1e-09
   704	3.281472023	0	1e-09
   705	3.262358319	0	1e-09
   706	3.288580081	0	1e-09
   707	3.292012353	0	1e-09
   708	3.345974905	0	1e-09
   709	3.307825775	0	1e-09
   710	3.335302034	0	1e-09
   711	3.348709352	0	1e-09
   712	3.309951293	0	1e-09
   713	3.306920854	0	1e-09
   714	3.314452999	0	1e-09
   715	3.33715892	0	1e-09
   716	3.323618634	0	1e-09
   717	3.327135561	0	1e-09
   718	3.305108509	0	1e-09
   719	3.294875118	0	1e-09
   720	3.338163736	0	1e-09
   721	3.339542512	0	1e-09
   722	3.358558553	0	1e-09
   723	3.37769275	0	1e-09
   724	3.3470084	0	1e-09
   725	3.313358757	0	1e-09
   726	3.328476922	0	1e-09
   727	3.266966995	0	1e-09
   728	3.306745977	0	1e-09
   729	3.369117098	0	1e-09
   730	3.342878534	0	1e-09
   731	3.3267629	0	1e-09
   732	3.314130656	0	1e-09
   733	3.303275475	0	1e-09
   734	3.361232245	0	1e-09
   735	3.334532907	0	1e-09
   736	3.357063394	0	1e-09
   737	3.310182043	0	1e-09
   738	3.383913479	0	1e-09
   739	3.288096807	0	1e-09
   740	3.345084373	0	1e-09
   741	3.323651792	0	1e-09
   742	3.309251013	0	1e-09
   743	3.326722493	0	1e-09
   744	3.31814515	0	1e-09
   745	3.271505016	0	1e-09
   746	3.323689461	0	1e-09
   747	3.29495612	0	1e-09
   748	3.347969298	0	1e-09
   749	3.309336883	0	1e-09
   750	3.343714034	0	1e-09
   751	3.267333806	0	1e-09
   752	3.289427608	0	1e-09
   753	3.359575956	0	1e-09
   754	3.316638029	0	1e-09
   755	3.330131694	0	1e-09
   756	3.354323849	0	1e-09
   757	3.315268837	0	1e-09
   758	3.349808949	0	1e-09
   759	3.307592608	0	1e-09
   760	3.35305564	0	1e-09
   761	3.345419355	0	1e-09
   762	3.354984589	0	1e-09
   763	3.331466614	0	1e-09
   764	3.305809592	0	1e-09
   765	3.291636255	0	1e-09
   766	3.324651246	0	1e-09
   767	3.285261248	0	1e-09
   768	3.362528256	0	1e-09
   769	3.331242534	0	1e-09
   770	3.335478783	0	1e-09
   771	3.285137521	0	1e-09
   772	3.333599252	0	1e-09
   773	3.326572319	0	1e-09
   774	3.346823445	0	1e-09
   775	3.305639588	0	1e-09
   776	3.310470656	0	1e-09
   777	3.31173329	0	1e-09
   778	3.342607472	0	1e-09
   779	3.311064623	0	1e-09
   780	3.325518924	0	1e-09
   781	3.282026889	0	1e-09
   782	3.307878229	0	1e-09
   783	3.32719859	0	1e-09
   784	3.362550041	0	1e-09
   785	3.287773809	0	1e-09
   786	3.337820874	0	1e-09
   787	3.330539886	0	1e-09
   788	3.347151154	0	1e-09
   789	3.325908656	0	1e-09
   790	3.316145093	0	1e-09
   791	3.308128274	0	1e-09
   792	3.338540333	0	1e-09
   793	3.316195548	0	1e-09
   794	3.33656409	0	1e-09
   795	3.271612116	0	1e-09
   796	3.28339683	0	1e-09
   797	3.353439869	0	1e-09
   798	3.30963891	0	1e-09
   799	3.268798202	0	1e-09
   800	3.293394653	0	1e-09
   801	3.350198619	0	1e-09
   802	3.311267604	0	1e-09
   803	3.342225619	0	1e-09
   804	3.301778722	0	1e-09
   805	3.30709126	0	1e-09
   806	3.305125353	0	1e-09
   807	3.333931008	0	1e-09
   808	3.269495224	0	1e-09
   809	3.331507153	0	1e-09
   810	3.336441643	0	1e-09
   811	3.409116433	0	1e-09
   812	3.262540792	0	1e-09
   813	3.317540634	0	1e-09
   814	3.288811683	0	1e-09
   815	3.289966707	0	1e-09
   816	3.351888689	0	1e-09
   817	3.324204396	0	1e-09
   818	3.259546356	0	1e-09
   819	3.325621627	0	1e-09
   820	3.323397634	0	1e-09
   821	3.324005933	0	1e-09
   822	3.315257198	0	1e-09
   823	3.293858863	0	1e-09
   824	3.276746179	0	1e-09
   825	3.364899441	0	1e-09
   826	3.353196615	0	1e-09
   827	3.356120116	0	1e-09
   828	3.304742671	0	1e-09
   829	3.298571279	0	1e-09
   830	3.3427017	0	1e-09
   831	3.338698527	0	1e-09
   832	3.34342609	0	1e-09
   833	3.333473788	0	1e-09
   834	3.314102888	0	1e-09
   835	3.290143893	0	1e-09
   836	3.330934811	0	1e-09
   837	3.329104438	0	1e-09
   838	3.293912827	0	1e-09
   839	3.355241682	0	1e-09
   840	3.362698722	0	1e-09
   841	3.294857126	0	1e-09
   842	3.321695292	0	1e-09
   843	3.330362427	0	1e-09
   844	3.322452036	0	1e-09
   845	3.351471889	0	1e-09
   846	3.303614042	0	1e-09
   847	3.28798923	0	1e-09
   848	3.341397312	0	1e-09
   849	3.373355396	0	1e-09
   850	3.308894505	0	1e-09
   851	3.337040941	0	1e-09
   852	3.313531146	0	1e-09
   853	3.309689537	0	1e-09
   854	3.325113502	0	1e-09
   855	3.333400034	0	1e-09
   856	3.322149929	0	1e-09
   857	3.312015108	0	1e-09
   858	3.306213253	0	1e-09
   859	3.310863862	0	1e-09
   860	3.363666931	0	1e-09
   861	3.307844996	0	1e-09
   862	3.318595161	0	1e-09
   863	3.35936675	0	1e-09
   864	3.345674898	0	1e-09
   865	3.284872799	0	1e-09
   866	3.336559295	0	1e-09
   867	3.370508714	0	1e-09
   868	3.311473893	0	1e-09
   869	3.317326081	0	1e-09
   870	3.310482015	0	1e-09
   871	3.340472706	0	1e-09
   872	3.33574443	0	1e-09
   873	3.32205639	0	1e-09
   874	3.307355337	0	1e-09
   875	3.282519348	0	1e-09
   876	3.297627947	0	1e-09
   877	3.314202653	0	1e-09
   878	3.339013373	0	1e-09
   879	3.271829377	0	1e-09
   880	3.297980545	0	1e-09
   881	3.313032317	0	1e-09
   882	3.29943989	0	1e-09
   883	3.352306028	0	1e-09
   884	3.349730518	0	1e-09
   885	3.327054768	0	1e-09
   886	3.352249147	0	1e-09
   887	3.324271269	0	1e-09
   888	3.302808722	0	1e-09
   889	3.340321875	0	1e-09
   890	3.314605335	0	1e-09
   891	3.329223167	0	1e-09
   892	3.343434038	0	1e-09
   893	3.342821337	0	1e-09
   894	3.338678658	0	1e-09
   895	3.356072269	0	1e-09
   896	3.32013669	0	1e-09
   897	3.380939441	0	1e-09
   898	3.296568171	0	1e-09
   899	3.355611039	0	1e-09
   900	3.355195587	0	1e-09
   901	3.31825366	0	1e-09
   902	3.36700785	0	1e-09
   903	3.290656495	0	1e-09
   904	3.354954563	0	1e-09
   905	3.304979217	0	1e-09
   906	3.308173122	0	1e-09
   907	3.355639548	0	1e-09
   908	3.291648905	0	1e-09
   909	3.327421005	0	1e-09
   910	3.328409081	0	1e-09
   911	3.260711376	0	1e-09
   912	3.356310357	0	1e-09
   913	3.324369228	0	1e-09
   914	3.321669745	0	1e-09
   915	3.337275928	0	1e-09
   916	3.295653842	0	1e-09
   917	3.30033643	0	1e-09
   918	3.316304418	0	1e-09
   919	3.305073239	0	1e-09
   920	3.330884657	0	1e-09
   921	3.321143362	0	1e-09
   922	3.316329225	0	1e-09
   923	3.352941434	0	1e-09
   924	3.313665158	0	1e-09
   925	3.297601176	0	1e-09
   926	3.356836374	0	1e-09
   927	3.32677471	0	1e-09
   928	3.317856791	0	1e-09
   929	3.318653446	0	1e-09
   930	3.343251138	0	1e-09
   931	3.3169419	0	1e-09
   932	3.349749034	0	1e-09
   933	3.316540718	0	1e-09
   934	3.313499094	0	1e-09
   935	3.310485078	0	1e-09
   936	3.282922471	0	1e-09
   937	3.319197397	0	1e-09
   938	3.321355215	0	1e-09
   939	3.3051117	0	1e-09
   940	3.298734746	0	1e-09
   941	3.347422118	0	1e-09
   942	3.33773313	0	1e-09
   943	3.31768208	0	1e-09
   944	3.314329914	0	1e-09
   945	3.291301348	0	1e-09
   946	3.322427615	0	1e-09
   947	3.267685333	0	1e-09
   948	3.316288981	0	1e-09
   949	3.321488678	0	1e-09
   950	3.360481079	0	1e-09
   951	3.339259032	0	1e-09
   952	3.331108288	0	1e-09
   953	3.378891515	0	1e-09
   954	3.31896212	0	1e-09
   955	3.297452372	0	1e-09
   956	3.312285321	0	1e-09
   957	3.403023169	0	1e-09
   958	3.329763675	0	1e-09
   959	3.350832806	0	1e-09
   960	3.298582217	0	1e-09
   961	3.296412598	0	1e-09
   962	3.349265038	0	1e-09
   963	3.284992977	0	1e-09
   964	3.307606939	0	1e-09
   965	3.302685839	0	1e-09
   966	3.336661063	0	1e-09
   967	3.33109729	0	1e-09
   968	3.294015374	0	1e-09
   969	3.318551309	0	1e-09
   970	3.343662129	0	1e-09
   971	3.338226308	0	1e-09
   972	3.288830205	0	1e-09
   973	3.325120954	0	1e-09
   974	3.360260687	0	1e-09
   975	3.374756526	0	1e-09
   976	3.365130431	0	1e-09
   977	3.297036565	0	1e-09
   978	3.370524409	0	1e-09
   979	3.293591548	0	1e-09
   980	3.304430525	0	1e-09
   981	3.346695932	0	1e-09
   982	3.364336381	0	1e-09
[...]
  2261	3.307444789	0	1e-09
  2262	3.392660824	0	1e-09
  2263	3.327892478	0	1e-09
  2264	3.352351087	0	1e-09
  2265	3.374738969	0	1e-09
  2266	3.319860916	0	1e-09
  2267	3.315837854	0	1e-09
  2268	3.364169802	0	1e-09
  2269	3.333042857	0	1e-09
  2270	3.269414937	0	1e-09
  2271	3.295834999	0	1e-09
  2272	3.315716435	0	1e-09
  2273	3.319229392	0	1e-09
  2274	3.304017264	0	1e-09
  2275	3.364811242	0	1e-09
  2276	3.330671739	0	1e-09
  2277	3.334416842	0	1e-09
  2278	3.29360964	0	1e-09
  2279	3.291992875	0	1e-09
  2280	3.315004062	0	1e-09
  2281	3.359741797	0	1e-09
  2282	3.313474695	0	1e-09
  2283	3.305254166	0	1e-09
  2284	3.276085697	0	1e-09
  2285	3.347987213	0	1e-09
  2286	3.345779905	0	1e-09
  2287	3.284677225	0	1e-09
  2288	3.346470733	0	1e-09
  2289	3.363808449	0	1e-09
  2290	3.347598595	0	1e-09
  2291	3.319653488	0	1e-09
  2292	3.348498711	0	1e-09
  2293	3.334480502	0	1e-09
  2294	3.238663768	0	1e-09
  2295	3.325778962	0	1e-09
  2296	3.334133806	0	1e-09
  2297	3.33034268	0	1e-09
  2298	3.331781135	0	1e-09
  2299	3.284185189	0	1e-09
  2300	3.366017325	0	1e-09
  2301	3.309164315	0	1e-09
  2302	3.339485281	0	1e-09
  2303	3.365880336	0	1e-09
  2304	3.301052505	0	1e-09
  2305	3.31590113	0	1e-09
  2306	3.291230235	0	1e-09
  2307	3.283435676	0	1e-09
  2308	3.328074634	0	1e-09
  2309	3.335189927	0	1e-09
  2310	3.373355024	0	1e-09
  2311	3.317824074	0	1e-09
  2312	3.359532871	0	1e-09
  2313	3.314637409	0	1e-09
  2314	3.313856421	0	1e-09
  2315	3.369531237	0	1e-09
  2316	3.335973635	0	1e-09
  2317	3.360681877	0	1e-09
  2318	3.322602856	0	1e-09
  2319	3.285160899	0	1e-09
  2320	3.299119523	0	1e-09
  2321	3.356215693	0	1e-09
  2322	3.298437276	0	1e-09
  2323	3.290371634	0	1e-09
  2324	3.293868337	0	1e-09
  2325	3.312480362	0	1e-09
  2326	3.280078823	0	1e-09
  2327	3.30208997	0	1e-09
  2328	3.309864546	0	1e-09
  2329	3.365781986	0	1e-09
  2330	3.271949258	0	1e-09
  2331	3.311376013	0	1e-09
  2332	3.299590186	0	1e-09
  2333	3.308289056	0	1e-09
  2334	3.326406692	0	1e-09
  2335	3.33627949	0	1e-09
  2336	3.343439563	0	1e-09
  2337	3.348638832	0	1e-09
  2338	3.316501106	0	1e-09
  2339	3.330078956	0	1e-09
  2340	3.354615841	0	1e-09
  2341	3.356425705	0	1e-09
  2342	3.334614078	0	1e-09
  2343	3.319277153	0	1e-09
  2344	3.284029602	0	1e-09
  2345	3.360654262	0	1e-09
  2346	3.324160739	0	1e-09
  2347	3.298370625	0	1e-09
  2348	3.35577547	0	1e-09
  2349	3.306403903	0	1e-09
  2350	3.324505894	0	1e-09
  2351	3.347810689	0	1e-09
  2352	3.318154775	0	1e-09
  2353	3.263096294	0	1e-09
  2354	3.262124443	0	1e-09
  2355	3.355353209	0	1e-09
  2356	3.343757755	0	1e-09
  2357	3.32364649	0	1e-09
  2358	3.348762459	0	1e-09
  2359	3.350501153	0	1e-09
  2360	3.344502954	0	1e-09
  2361	3.267269621	0	1e-09
  2362	3.339013862	0	1e-09
  2363	3.337724211	0	1e-09
  2364	3.327107796	0	1e-09
  2365	3.30909712	0	1e-09
  2366	3.318750252	0	1e-09
  2367	3.319654384	0	1e-09
  2368	3.332151788	0	1e-09
  2369	3.351697549	0	1e-09
  2370	3.297727165	0	1e-09
  2371	3.320584728	0	1e-09
  2372	3.312434212	0	1e-09
  2373	3.317450567	0	1e-09
  2374	3.286018315	0	1e-09
  2375	3.311936283	0	1e-09
  2376	3.296389871	0	1e-09
  2377	3.339273629	0	1e-09
  2378	3.334336307	0	1e-09
  2379	3.348472528	0	1e-09
  2380	3.309003906	0	1e-09
  2381	3.348943507	0	1e-09
  2382	3.352897136	0	1e-09
  2383	3.317386142	0	1e-09
  2384	3.297365854	0	1e-09
  2385	3.301862249	0	1e-09
  2386	3.322092072	0	1e-09
  2387	3.278527478	0	1e-09
  2388	3.27527537	0	1e-09
  2389	3.296149925	0	1e-09
  2390	3.301104956	0	1e-09
  2391	3.280850913	0	1e-09
  2392	3.276576687	0	1e-09
  2393	3.273306905	0	1e-09
  2394	3.32948572	0	1e-09
  2395	3.323644674	0	1e-09
  2396	3.315343221	0	1e-09
  2397	3.35348273	0	1e-09
  2398	3.321751471	0	1e-09
  2399	3.300547307	0	1e-09
  2400	3.307187707	0	1e-09
  2401	3.33950193	0	1e-09
  2402	3.298904407	0	1e-09
  2403	3.316529987	0	1e-09
  2404	3.334931433	0	1e-09
  2405	3.303302036	0	1e-09
  2406	3.288927361	0	1e-09
  2407	3.338074149	0	1e-09
  2408	3.327952214	0	1e-09
  2409	3.345633231	0	1e-09
  2410	3.340127747	0	1e-09
  2411	3.312322898	0	1e-09
  2412	3.28861809	0	1e-09
  2413	3.306448149	0	1e-09
  2414	3.259544495	0	1e-09
  2415	3.318725904	0	1e-09
  2416	3.264057412	0	1e-09
  2417	3.311515899	0	1e-09
  2418	3.359791892	0	1e-09
  2419	3.35965282	0	1e-09
  2420	3.315197352	0	1e-09
  2421	3.330067259	0	1e-09
  2422	3.380390707	0	1e-09
  2423	3.305686389	0	1e-09
  2424	3.358750975	0	1e-09
  2425	3.382939709	0	1e-09
  2426	3.303670968	0	1e-09
  2427	3.292139278	0	1e-09
  2428	3.3076988	0	1e-09
  2429	3.330448801	0	1e-09
  2430	3.326860314	0	1e-09
  2431	3.321504161	0	1e-09
  2432	3.321390538	0	1e-09
  2433	3.297390806	0	1e-09
  2434	3.322101122	0	1e-09
  2435	3.351617987	0	1e-09
  2436	3.320793323	0	1e-09
  2437	3.326786683	0	1e-09
  2438	3.329659926	0	1e-09
  2439	3.306980877	0	1e-09
  2440	3.312747605	0	1e-09
  2441	3.334134269	0	1e-09
  2442	3.328719139	0	1e-09
  2443	3.352223962	0	1e-09
  2444	3.318824651	0	1e-09
  2445	3.305815055	0	1e-09
  2446	3.343751924	0	1e-09
  2447	3.29315128	0	1e-09
  2448	3.317716184	0	1e-09
  2449	3.328742073	0	1e-09
  2450	3.310236758	0	1e-09
  2451	3.2965907	0	1e-09
  2452	3.317855492	0	1e-09
  2453	3.315847588	0	1e-09
  2454	3.328541335	0	1e-09
  2455	3.316319277	0	1e-09
  2456	3.334697317	0	1e-09
  2457	3.368512258	0	1e-09
  2458	3.337844132	0	1e-09
  2459	3.325728789	0	1e-09
  2460	3.332314908	0	1e-09
  2461	3.295045513	0	1e-09
  2462	3.33638333	0	1e-09
  2463	3.300399921	0	1e-09
  2464	3.321183349	0	1e-09
  2465	3.240276323	0	1e-09
  2466	3.323189566	0	1e-09
  2467	3.346375812	0	1e-09
  2468	3.331851696	0	1e-09
  2469	3.337729549	0	1e-09
  2470	3.294272106	0	1e-09
  2471	3.293317406	0	1e-09
  2472	3.357240298	0	1e-09
  2473	3.420986177	0	1e-09
  2474	3.368341197	0	1e-09
  2475	3.3431371	0	1e-09
  2476	3.380273606	0	1e-09
  2477	3.327754048	0	1e-09
  2478	3.305842828	0	1e-09
  2479	3.314108367	0	1e-09
  2480	3.290991423	0	1e-09
  2481	3.301859381	0	1e-09
  2482	3.336844408	0	1e-09
  2483	3.318942368	0	1e-09
  2484	3.332666002	0	1e-09
  2485	3.314454291	0	1e-09
  2486	3.313048602	0	1e-09
  2487	3.292557084	0	1e-09
  2488	3.321017457	0	1e-09
  2489	3.316010235	0	1e-09
  2490	3.305680177	0	1e-09
  2491	3.336057769	0	1e-09
  2492	3.335398971	0	1e-09
  2493	3.351681466	0	1e-09
  2494	3.344554252	0	1e-09
  2495	3.317042943	0	1e-09
  2496	3.292789667	0	1e-09
  2497	3.32202624	0	1e-09
  2498	3.297275868	0	1e-09
  2499	3.360393002	0	1e-09
  2500	3.305211813	0	1e-09
  2501	3.315188192	0	1e-09
  2502	3.328689519	0	1e-09
  2503	3.349152588	0	1e-09
  2504	3.322239029	0	1e-09
  2505	3.298231004	0	1e-09
  2506	3.293238965	0	1e-09
  2507	3.332489576	0	1e-09
  2508	3.305583269	0	1e-09
  2509	3.291683519	0	1e-09
  2510	3.311090476	0	1e-09
  2511	3.316945736	0	1e-09
  2512	3.347665757	0	1e-09
  2513	3.325155009	0	1e-09
  2514	3.347384363	0	1e-09
  2515	3.314802374	0	1e-09
  2516	3.320041956	0	1e-09
  2517	3.287889245	0	1e-09
  2518	3.365626506	0	1e-09
  2519	3.319865794	0	1e-09
  2520	3.341993329	0	1e-09
  2521	3.25999022	0	1e-09
  2522	3.364155806	0	1e-09
  2523	3.335663974	0	1e-09
  2524	3.277133292	0	1e-09
  2525	3.337798172	0	1e-09
  2526	3.325163804	0	1e-09
  2527	3.35560924	0	1e-09
  2528	3.287435003	0	1e-09
  2529	3.324292586	0	1e-09
  2530	3.307296875	0	1e-09
  2531	3.32290759	0	1e-09
  2532	3.317633768	0	1e-09
  2533	3.300224047	0	1e-09
  2534	3.302563228	0	1e-09
  2535	3.331873356	0	1e-09
  2536	3.319683969	0	1e-09
  2537	3.371987516	0	1e-09
  2538	3.320902432	0	1e-09
  2539	3.318516682	0	1e-09
  2540	3.291796022	0	1e-09
  2541	3.293722697	0	1e-09
  2542	3.338248311	0	1e-09
  2543	3.30279402	0	1e-09
  2544	3.315859723	0	1e-09
  2545	3.330980948	0	1e-09
  2546	3.279941888	0	1e-09
  2547	3.30705588	0	1e-09
  2548	3.358619343	0	1e-09
  2549	3.283295424	0	1e-09
  2550	3.328659088	0	1e-09
  2551	3.273392595	0	1e-09
  2552	3.315930916	0	1e-09
  2553	3.313638133	0	1e-09
  2554	3.333725617	0	1e-09
  2555	3.332780756	0	1e-09
  2556	3.379039588	0	1e-09
  2557	3.345670108	0	1e-09
  2558	3.311238395	0	1e-09
  2559	3.35436434	0	1e-09
  2560	3.300601829	0	1e-09
  2561	3.335476325	0	1e-09
  2562	3.343226647	0	1e-09
  2563	3.290102961	0	1e-09
  2564	3.340534613	0	1e-09
  2565	3.287053716	0	1e-09
  2566	3.328331704	0	1e-09
  2567	3.345552872	0	1e-09
  2568	3.315147855	0	1e-09
  2569	3.343904054	0	1e-09
  2570	3.315075345	0	1e-09
  2571	3.323358192	0	1e-09
  2572	3.359681069	0	1e-09
  2573	3.284790447	0	1e-09
  2574	3.307670274	0	1e-09
  2575	3.322321473	0	1e-09
  2576	3.286177718	0	1e-09
  2577	3.303902991	0	1e-09
  2578	3.358641302	0	1e-09
  2579	3.323962713	0	1e-09
  2580	3.290354565	0	1e-09
  2581	3.275999626	0	1e-09
  2582	3.369384971	0	1e-09
  2583	3.292456582	0	1e-09
  2584	3.340378769	0	1e-09
  2585	3.342899492	0	1e-09
  2586	3.336915178	0	1e-09
  2587	3.29781401	0	1e-09
  2588	3.307103964	0	1e-09
  2589	3.303492537	0	1e-09
  2590	3.27576286	0	1e-09
  2591	3.364320933	0	1e-09
  2592	3.341217904	0	1e-09
  2593	3.294870743	0	1e-09
  2594	3.297429421	0	1e-09
  2595	3.329906255	0	1e-09
  2596	3.330340107	0	1e-09
  2597	3.262224296	0	1e-09
  2598	3.301045406	0	1e-09
  2599	3.327126816	0	1e-09
  2600	3.349216751	0	1e-09
  2601	3.269532814	0	1e-09
  2602	3.335391684	0	1e-09
  2603	3.317811097	0	1e-09
  2604	3.275845611	0	1e-09
  2605	3.321882922	0	1e-09
  2606	3.362995419	0	1e-09
  2607	3.327310723	0	1e-09
  2608	3.339714023	0	1e-09
  2609	3.303675366	0	1e-09
  2610	3.320182559	0	1e-09
  2611	3.322280898	0	1e-09
  2612	3.285871705	0	1e-09
  2613	3.370080162	0	1e-09
  2614	3.376845827	0	1e-09
  2615	3.319174797	0	1e-09
  2616	3.283327576	0	1e-09
  2617	3.307513578	0	1e-09
  2618	3.324510694	0	1e-09
  2619	3.321496249	0	1e-09
  2620	3.297868601	0	1e-09
  2621	3.260428618	0	1e-09
  2622	3.31309913	0	1e-09
  2623	3.298701153	0	1e-09
  2624	3.266846924	0	1e-09
  2625	3.306166726	0	1e-09
  2626	3.315408687	0	1e-09
  2627	3.306937995	0	1e-09
  2628	3.325784476	0	1e-09
  2629	3.286771324	0	1e-09
  2630	3.266375268	0	1e-09
  2631	3.311090504	0	1e-09
  2632	3.316020487	0	1e-09
  2633	3.290601415	0	1e-09
  2634	3.301559341	0	1e-09
  2635	3.327900749	0	1e-09
  2636	3.328267754	0	1e-09
  2637	3.31045424	0	1e-09
  2638	3.317471588	0	1e-09
  2639	3.263403725	0	1e-09
  2640	3.33531753	0	1e-09
  2641	3.294303882	0	1e-09
  2642	3.336770438	0	1e-09
  2643	3.322965917	0	1e-09
  2644	3.349678856	0	1e-09
  2645	3.362661763	0	1e-09
  2646	3.393527395	0	1e-09
  2647	3.284792414	0	1e-09
  2648	3.301539973	0	1e-09
  2649	3.344699471	0	1e-09
  2650	3.296297254	0	1e-09
  2651	3.316739689	0	1e-09
  2652	3.377683143	0	1e-09
  2653	3.350590616	0	1e-09
  2654	3.323851895	0	1e-09
  2655	3.331203572	0	1e-09
  2656	3.284733275	0	1e-09
  2657	3.361011159	0	1e-09
  2658	3.305993347	0	1e-09
  2659	3.359988399	0	1e-09
  2660	3.340346016	0	1e-09
  2661	3.343190851	0	1e-09
  2662	3.327943933	0	1e-09
  2663	3.338828765	0	1e-09
  2664	3.271244493	0	1e-09
  2665	3.339585341	0	1e-09
  2666	3.319441021	0	1e-09
  2667	3.305913013	0	1e-09
  2668	3.322878129	0	1e-09
  2669	3.350902163	0	1e-09
  2670	3.327706515	0	1e-09
  2671	3.365812482	0	1e-09
  2672	3.294442815	0	1e-09
  2673	3.374820047	0	1e-09
  2674	3.243017298	0	1e-09
  2675	3.339181738	0	1e-09
  2676	3.374583722	0	1e-09
  2677	3.341641217	0	1e-09
  2678	3.309006098	0	1e-09
  2679	3.340917753	0	1e-09
  2680	3.295857135	0	1e-09
  2681	3.314399191	0	1e-09
  2682	3.347081958	0	1e-09
  2683	3.301142866	0	1e-09
  2684	3.300715384	0	1e-09
  2685	3.331919726	0	1e-09
  2686	3.27233992	0	1e-09
  2687	3.338170122	0	1e-09
  2688	3.347552152	0	1e-09
  2689	3.321555152	0	1e-09
  2690	3.329703837	0	1e-09
  2691	3.292666626	0	1e-09
  2692	3.368554924	0	1e-09
  2693	3.304929753	0	1e-09
  2694	3.343287972	0	1e-09
  2695	3.248032371	0	1e-09
  2696	3.32925753	0	1e-09
  2697	3.321241907	0	1e-09
  2698	3.311755187	0	1e-09
  2699	3.278857295	0	1e-09
  2700	3.304132243	0	1e-09
  2701	3.283846914	0	1e-09
  2702	3.363865171	0	1e-09
  2703	3.358123437	0	1e-09
  2704	3.335141654	0	1e-09
  2705	3.332959326	0	1e-09
  2706	3.342642468	0	1e-09
  2707	3.301812242	0	1e-09
  2708	3.339494155	0	1e-09
  2709	3.354647241	0	1e-09
  2710	3.347121538	0	1e-09
  2711	3.287346555	0	1e-09
  2712	3.335624784	0	1e-09
  2713	3.350313308	0	1e-09
  2714	3.340759637	0	1e-09
  2715	3.3070811	0	1e-09
  2716	3.324544424	0	1e-09
  2717	3.313549145	0	1e-09
  2718	3.281843433	0	1e-09
  2719	3.389862833	0	1e-09
  2720	3.311151034	0	1e-09
  2721	3.308856603	0	1e-09
  2722	3.28871938	0	1e-09
  2723	3.289996727	0	1e-09
  2724	3.31478281	0	1e-09
  2725	3.318766899	0	1e-09
  2726	3.346965592	0	1e-09
  2727	3.306038116	0	1e-09
  2728	3.336566731	0	1e-09
  2729	3.296321004	0	1e-09
  2730	3.321698292	0	1e-09
  2731	3.326505602	0	1e-09
  2732	3.298274823	0	1e-09
  2733	3.334684739	0	1e-09
  2734	3.319864515	0	1e-09
  2735	3.334215854	0	1e-09
  2736	3.330738413	0	1e-09
  2737	3.301639742	0	1e-09
  2738	3.35324917	0	1e-09
  2739	3.299270027	0	1e-09
  2740	3.301769775	0	1e-09
  2741	3.328987724	0	1e-09
  2742	3.310731042	0	1e-09
  2743	3.339003428	0	1e-09
  2744	3.358497075	0	1e-09
  2745	3.331982073	0	1e-09
  2746	3.388363321	0	1e-09
  2747	3.289682683	0	1e-09
  2748	3.297652382	0	1e-09
  2749	3.330774184	0	1e-09
  2750	3.348343355	0	1e-09
  2751	3.350248084	0	1e-09
  2752	3.359855996	0	1e-09
  2753	3.298370875	0	1e-09
  2754	3.329093104	0	1e-09
  2755	3.31963027	0	1e-09
  2756	3.32046335	0	1e-09
  2757	3.297445653	0	1e-09
  2758	3.31976203	0	1e-09
  2759	3.311050876	0	1e-09
  2760	3.361639956	0	1e-09
  2761	3.322962444	0	1e-09
  2762	3.351620773	0	1e-09
  2763	3.35037082	0	1e-09
  2764	3.321098574	0	1e-09
  2765	3.30826234	0	1e-09
  2766	3.230674446	0	1e-09
  2767	3.267381818	0	1e-09
  2768	3.332559615	0	1e-09
  2769	3.319641408	0	1e-09
  2770	3.294729884	0	1e-09
  2771	3.289382946	0	1e-09
  2772	3.346587124	0	1e-09
  2773	3.330754592	0	1e-09
  2774	3.372544925	0	1e-09
  2775	3.32131268	0	1e-09
  2776	3.351565936	0	1e-09
  2777	3.290485092	0	1e-09
  2778	3.394979372	0	1e-09
  2779	3.34762548	0	1e-09
  2780	3.328728719	0	1e-09
  2781	3.333842435	0	1e-09
  2782	3.359783988	0	1e-09
  2783	3.315401416	0	1e-09
  2784	3.28824632	0	1e-09
  2785	3.325370954	0	1e-09
  2786	3.308302852	0	1e-09
  2787	3.309537859	0	1e-09
  2788	3.273865708	0	1e-09
  2789	3.339238028	0	1e-09
  2790	3.29495894	0	1e-09
  2791	3.357513605	0	1e-09
  2792	3.325889738	0	1e-09
  2793	3.333570139	0	1e-09
  2794	3.338406981	0	1e-09
  2795	3.311139154	0	1e-09
  2796	3.323586126	0	1e-09
  2797	3.358574592	0	1e-09
  2798	3.277345405	0	1e-09
  2799	3.327685189	0	1e-09
  2800	3.322537359	0	1e-09
  2801	3.29116973	0	1e-09
  2802	3.296370134	0	1e-09
  2803	3.32746669	0	1e-09
  2804	3.284580259	0	1e-09
  2805	3.320047358	0	1e-09
  2806	3.335747467	0	1e-09
  2807	3.311349417	0	1e-09
  2808	3.292139859	0	1e-09
  2809	3.348169125	0	1e-09
  2810	3.297109673	0	1e-09
  2811	3.256798966	0	1e-09
  2812	3.32154163	0	1e-09
  2813	3.346622352	0	1e-09
  2814	3.304699667	0	1e-09
  2815	3.286698214	0	1e-09
  2816	3.364590614	0	1e-09
  2817	3.359846766	0	1e-09
  2818	3.336402174	0	1e-09
  2819	3.287438156	0	1e-09
  2820	3.36593392	0	1e-09
  2821	3.294143459	0	1e-09
  2822	3.281111201	0	1e-09
  2823	3.338607334	0	1e-09
  2824	3.343888247	0	1e-09
  2825	3.319167941	0	1e-09
  2826	3.317299229	0	1e-09
  2827	3.297512666	0	1e-09
  2828	3.339832999	0	1e-09
  2829	3.333058808	0	1e-09
  2830	3.340085309	0	1e-09
  2831	3.335776733	0	1e-09
  2832	3.317206715	0	1e-09
  2833	3.32757858	0	1e-09
  2834	3.328208248	0	1e-09
  2835	3.340442017	0	1e-09
  2836	3.316130519	0	1e-09
  2837	3.323866421	0	1e-09
  2838	3.321833856	0	1e-09
  2839	3.338540537	0	1e-09
  2840	3.288882971	0	1e-09
  2841	3.283915742	0	1e-09
  2842	3.324444968	0	1e-09
  2843	3.312596486	0	1e-09
  2844	3.314782894	0	1e-09
  2845	3.308511416	0	1e-09
  2846	3.349235858	0	1e-09
  2847	3.336490753	0	1e-09
  2848	3.328352141	0	1e-09
  2849	3.337816411	0	1e-09
  2850	3.298871579	0	1e-09
  2851	3.329936332	0	1e-09
  2852	3.241242863	0	1e-09
  2853	3.303264312	0	1e-09
  2854	3.338278518	0	1e-09
  2855	3.299639479	0	1e-09
  2856	3.306739106	0	1e-09
  2857	3.334926199	0	1e-09
  2858	3.334483181	0	1e-09
  2859	3.314362646	0	1e-09
  2860	3.316121111	0	1e-09
  2861	3.27151489	0	1e-09
  2862	3.272798158	0	1e-09
  2863	3.336238918	0	1e-09
  2864	3.333341052	0	1e-09
  2865	3.304178413	0	1e-09
  2866	3.339097721	0	1e-09
  2867	3.327887914	0	1e-09
  2868	3.339858618	0	1e-09
  2869	3.342464672	0	1e-09
  2870	3.357063646	0	1e-09
  2871	3.325704919	0	1e-09
  2872	3.29923094	0	1e-09
  2873	3.304898947	0	1e-09
  2874	3.31800065	0	1e-09
  2875	3.349972006	0	1e-09
  2876	3.339457921	0	1e-09
  2877	3.32325665	0	1e-09
  2878	3.342053005	0	1e-09
  2879	3.301243415	0	1e-09
  2880	3.290171366	0	1e-09
  2881	3.391625746	0	1e-09
  2882	3.308646659	0	1e-09
  2883	3.318439189	0	1e-09
  2884	3.343139887	0	1e-09
  2885	3.299989347	0	1e-09
  2886	3.292831437	0	1e-09
  2887	3.335946951	0	1e-09
  2888	3.337597876	0	1e-09
  2889	3.348094485	0	1e-09
  2890	3.287675007	0	1e-09
  2891	3.319037592	0	1e-09
  2892	3.37297158	0	1e-09
  2893	3.324841131	0	1e-09
  2894	3.327211573	0	1e-09
  2895	3.263862128	0	1e-09
  2896	3.319761237	0	1e-09
  2897	3.29303439	0	1e-09
  2898	3.329931659	0	1e-09
  2899	3.362193767	0	1e-09
  2900	3.328338432	0	1e-09
  2901	3.282238514	0	1e-09
  2902	3.323493396	0	1e-09
  2903	3.330785802	0	1e-09
  2904	3.301151236	0	1e-09
  2905	3.317218386	0	1e-09
  2906	3.26801992	0	1e-09
  2907	3.319764388	0	1e-09
  2908	3.333279181	0	1e-09
  2909	3.305324376	0	1e-09
  2910	3.346357702	0	1e-09
  2911	3.326774197	0	1e-09
  2912	3.304147053	0	1e-09
  2913	3.313860526	0	1e-09
  2914	3.328307304	0	1e-09
  2915	3.310385275	0	1e-09
  2916	3.276331514	0	1e-09
  2917	3.331080513	0	1e-09
  2918	3.321215079	0	1e-09
  2919	3.275894561	0	1e-09
  2920	3.340898511	0	1e-09
  2921	3.255200071	0	1e-09
  2922	3.309927089	0	1e-09
  2923	3.329439947	0	1e-09
  2924	3.378353852	0	1e-09
  2925	3.31626665	0	1e-09
  2926	3.320380491	0	1e-09
  2927	3.314512761	0	1e-09
  2928	3.299229262	0	1e-09
  2929	3.341861888	0	1e-09
  2930	3.290205346	0	1e-09
  2931	3.260543289	0	1e-09
  2932	3.33774589	0	1e-09
  2933	3.309673019	0	1e-09
  2934	3.318450236	0	1e-09
  2935	3.282776899	0	1e-09
  2936	3.313639989	0	1e-09
  2937	3.282072413	0	1e-09
  2938	3.375055813	0	1e-09
  2939	3.321805911	0	1e-09
  2940	3.328334219	0	1e-09
  2941	3.283202989	0	1e-09
  2942	3.312805602	0	1e-09
  2943	3.379900382	0	1e-09
  2944	3.328480176	0	1e-09
  2945	3.290430061	0	1e-09
  2946	3.300317379	0	1e-09
  2947	3.359074284	0	1e-09
  2948	3.302577307	0	1e-09
  2949	3.371866271	0	1e-09
  2950	3.296983688	0	1e-09
  2951	3.369197368	0	1e-09
  2952	3.348302552	0	1e-09
  2953	3.276678164	0	1e-09
  2954	3.275618134	0	1e-09
  2955	3.326209063	0	1e-09
  2956	3.294021463	0	1e-09
  2957	3.306667911	0	1e-09
  2958	3.368467546	0	1e-09
  2959	3.3397277	0	1e-09
  2960	3.291121709	0	1e-09
  2961	3.335045306	0	1e-09
  2962	3.34470875	0	1e-09
  2963	3.347016303	0	1e-09
  2964	3.321742403	0	1e-09
  2965	3.316052082	0	1e-09
  2966	3.34244501	0	1e-09
  2967	3.352006327	0	1e-09
  2968	3.312554117	0	1e-09
  2969	3.33166132	0	1e-09
  2970	3.348491678	0	1e-09
  2971	3.299194079	0	1e-09
  2972	3.324790091	0	1e-09
  2973	3.348817913	0	1e-09
  2974	3.355498837	0	1e-09
  2975	3.335945612	0	1e-09
  2976	3.376884226	0	1e-09
  2977	3.361413778	0	1e-09
  2978	3.261415859	0	1e-09
  2979	3.310657671	0	1e-09
  2980	3.3642613	0	1e-09
  2981	3.298072303	0	1e-09
  2982	3.322310685	0	1e-09
  2983	3.330963017	0	1e-09
  2984	3.336916027	0	1e-09
  2985	3.332407943	0	1e-09
  2986	3.351597045	0	1e-09
  2987	3.333067897	0	1e-09
  2988	3.307564732	0	1e-09
  2989	3.288996065	0	1e-09
  2990	3.282313089	0	1e-09
  2991	3.305561862	0	1e-09
  2992	3.263766564	0	1e-09
  2993	3.339169941	0	1e-09
  2994	3.310459532	0	1e-09
  2995	3.326739359	0	1e-09
  2996	3.308185333	0	1e-09
  2997	3.349836642	0	1e-09
  2998	3.277792419	0	1e-09
  2999	3.319577314	0	1e-09
  3000	3.305378255	0	1e-09
  3001	3.290151671	0	1e-09

Total elapsed time: 46.367 seconds.

