LTspice 24.0.12 for Windows
Circuit: * C:\Users\AntovI\Desktop\Projects\702\702-pumpcontrol102\Simulations\+3.3V\3V3.asc
Start Time: Wed Mar  5 11:00:28 2025
solver = Normal
Maximum thread count: 12



ERROR: Node N002 is floating and connected to current source I1

WARNING: Less than two connections to node n001.  This node is used by r15.
WARNING: Less than two connections to node vref.  This node is used by v1.
WARNING: Less than two connections to node vin.  This node is used by v2.
Direct Newton iteration for .op point succeeded.
.step run=0



.step run=1



.step run=2



.step run=3



.step run=4



.step run=5



.step run=6



.step run=7



.step run=8



.step run=9



.step run=10



.step run=11



.step run=12



.step run=13



.step run=14



.step run=15



.step run=16



.step run=17



.step run=18



.step run=19



.step run=20



.step run=21



.step run=22



.step run=23



.step run=24



.step run=25



.step run=26



.step run=27



.step run=28



.step run=29



.step run=30



.step run=31



.step run=32



.step run=33



.step run=34



.step run=35



.step run=36



.step run=37



.step run=38



.step run=39



.step run=40



.step run=41



.step run=42



.step run=43



.step run=44



.step run=45



.step run=46



.step run=47



.step run=48



.step run=49



.step run=50



.step run=51



.step run=52



.step run=53



.step run=54



.step run=55



.step run=56



.step run=57



.step run=58



.step run=59



.step run=60



.step run=61



.step run=62



.step run=63
tnom = 27
temp = 27
method = modified trap
.step run=64


Measurement: vout
  step	AVG(vref*(1+(r65*r75/(r65+r75))/r15) + iadj*(r65*r75/(r65+r75)))	FROM	TO
     1	3.32075	0	1e-09
     2	3.1816269	0	1e-09
     3	3.1816269	0	1e-09
     4	3.4466269	0	1e-09
     5	3.4466269	0	1e-09
     6	3.196269	0	1e-09
     7	3.196269	0	1e-09
     8	3.461269	0	1e-09
     9	3.461269	0	1e-09
    10	3.126952344	0	1e-09
    11	3.126952344	0	1e-09
    12	3.387396131	0	1e-09
    13	3.387396131	0	1e-09
    14	3.141594444	0	1e-09
    15	3.141594444	0	1e-09
    16	3.402038231	0	1e-09
    17	3.402038231	0	1e-09
    18	3.209369677	0	1e-09
    19	3.209369677	0	1e-09
    20	3.476679677	0	1e-09
    21	3.476679677	0	1e-09
    22	3.224216766	0	1e-09
    23	3.224216766	0	1e-09
    24	3.491526766	0	1e-09
    25	3.491526766	0	1e-09
    26	3.153929677	0	1e-09
    27	3.153929677	0	1e-09
    28	3.416619677	0	1e-09
    29	3.416619677	0	1e-09
    30	3.168776766	0	1e-09
    31	3.168776766	0	1e-09
    32	3.431466766	0	1e-09
    33	3.431466766	0	1e-09
    34	3.209369677	0	1e-09
    35	3.209369677	0	1e-09
    36	3.476679677	0	1e-09
    37	3.476679677	0	1e-09
    38	3.224216766	0	1e-09
    39	3.224216766	0	1e-09
    40	3.491526766	0	1e-09
    41	3.491526766	0	1e-09
    42	3.153929677	0	1e-09
    43	3.153929677	0	1e-09
    44	3.416619677	0	1e-09
    45	3.416619677	0	1e-09
    46	3.168776766	0	1e-09
    47	3.168776766	0	1e-09
    48	3.431466766	0	1e-09
    49	3.431466766	0	1e-09
    50	3.237900281	0	1e-09
    51	3.237900281	0	1e-09
    52	3.507585879	0	1e-09
    53	3.507585879	0	1e-09
    54	3.252958181	0	1e-09
    55	3.252958181	0	1e-09
    56	3.522643779	0	1e-09
    57	3.522643779	0	1e-09
    58	3.1816731	0	1e-09
    59	3.1816731	0	1e-09
    60	3.4466731	0	1e-09
    61	3.4466731	0	1e-09
    62	3.196731	0	1e-09
    63	3.196731	0	1e-09
    64	3.461731	0	1e-09
    65	3.461731	0	1e-09

Total elapsed time: 0.960 seconds.

