LTspice 24.0.12 for Windows
Circuit: * C:\Users\AntovI\Desktop\Projects\702\702-pumpcontrol102\Simulations\+15V\15V.asc
Start Time: Wed Mar  5 10:48:54 2025
solver = Normal
Maximum thread count: 12



ERROR: Node N002 is floating and connected to current source I1

WARNING: Less than two connections to node vref.  This node is used by v1.
WARNING: Less than two connections to node vin.  This node is used by v2.
Direct Newton iteration for .op point succeeded.
.step run=0



.step run=1



.step run=2



.step run=3



.step run=4



.step run=5



.step run=6



.step run=7



.step run=8



.step run=9



.step run=10



.step run=11



.step run=12



.step run=13



.step run=14



.step run=15



.step run=16



.step run=17



.step run=18



.step run=19



.step run=20



.step run=21



.step run=22



.step run=23



.step run=24



.step run=25



.step run=26



.step run=27



.step run=28



.step run=29



.step run=30



.step run=31



.step run=32



.step run=33



.step run=34



.step run=35



.step run=36



.step run=37



.step run=38



.step run=39



.step run=40



.step run=41



.step run=42



.step run=43



.step run=44



.step run=45



.step run=46



.step run=47



.step run=48



.step run=49



.step run=50



.step run=51



.step run=52



.step run=53



.step run=54



.step run=55



.step run=56



.step run=57



.step run=58



.step run=59



.step run=60



.step run=61



.step run=62



.step run=63



.step run=64



.step run=65



.step run=66



.step run=67



.step run=68



.step run=69



.step run=70



.step run=71



.step run=72



.step run=73



.step run=74



.step run=75



.step run=76



.step run=77



.step run=78



.step run=79



.step run=80



.step run=81



.step run=82



.step run=83



.step run=84



.step run=85



.step run=86



.step run=87



.step run=88



.step run=89



.step run=90



.step run=91



.step run=92



.step run=93



.step run=94



.step run=95



.step run=96



.step run=97



.step run=98



.step run=99



.step run=100



.step run=101



.step run=102



.step run=103



.step run=104



.step run=105



.step run=106



.step run=107



.step run=108



.step run=109



.step run=110



.step run=111



.step run=112



.step run=113



.step run=114



.step run=115



.step run=116



.step run=117



.step run=118



.step run=119



.step run=120



.step run=121



.step run=122



.step run=123



.step run=124



.step run=125



.step run=126



.step run=127



.step run=128



.step run=129



.step run=130



.step run=131



.step run=132



.step run=133



.step run=134



.step run=135



.step run=136



.step run=137



.step run=138



.step run=139



.step run=140



.step run=141



.step run=142



.step run=143



.step run=144



.step run=145



.step run=146



.step run=147



.step run=148



.step run=149



.step run=150



.step run=151



.step run=152



.step run=153



.step run=154



.step run=155



.step run=156



.step run=157



.step run=158



.step run=159



.step run=160



.step run=161



.step run=162



.step run=163



.step run=164



.step run=165



.step run=166



.step run=167



.step run=168



.step run=169



.step run=170



.step run=171



.step run=172



.step run=173



.step run=174



.step run=175



.step run=176



.step run=177



.step run=178



.step run=179



.step run=180



.step run=181



.step run=182



.step run=183



.step run=184



.step run=185



.step run=186



.step run=187



.step run=188



.step run=189



.step run=190



.step run=191



.step run=192



.step run=193



.step run=194



.step run=195



.step run=196



.step run=197



.step run=198



.step run=199



.step run=200



.step run=201



.step run=202



.step run=203



.step run=204



.step run=205



.step run=206



.step run=207



.step run=208



.step run=209



.step run=210



.step run=211



.step run=212



.step run=213



.step run=214



.step run=215



.step run=216



.step run=217



.step run=218



.step run=219



.step run=220



.step run=221



.step run=222



.step run=223



.step run=224



.step run=225



.step run=226



.step run=227



.step run=228



.step run=229



.step run=230



.step run=231



.step run=232



.step run=233



.step run=234



.step run=235



.step run=236



.step run=237



.step run=238



.step run=239



.step run=240



.step run=241



.step run=242



.step run=243



.step run=244



.step run=245



.step run=246



.step run=247



.step run=248



.step run=249



.step run=250



.step run=251



.step run=252



.step run=253



.step run=254



.step run=255



.step run=256



.step run=257



.step run=258



.step run=259



.step run=260



.step run=261



.step run=262



.step run=263



.step run=264



.step run=265



.step run=266



.step run=267



.step run=268



.step run=269



.step run=270



.step run=271



.step run=272



.step run=273



.step run=274



.step run=275



.step run=276



.step run=277



.step run=278



.step run=279



.step run=280



.step run=281



.step run=282



.step run=283



.step run=284



.step run=285



.step run=286



.step run=287



.step run=288



.step run=289



.step run=290



.step run=291



.step run=292



.step run=293



.step run=294



.step run=295



.step run=296



.step run=297



.step run=298



.step run=299



.step run=300



.step run=301



.step run=302



.step run=303



.step run=304



.step run=305



.step run=306



.step run=307



.step run=308



.step run=309



.step run=310



.step run=311



.step run=312



.step run=313



.step run=314



.step run=315



.step run=316



.step run=317



.step run=318



.step run=319



.step run=320



.step run=321



.step run=322



.step run=323



.step run=324



.step run=325



.step run=326



.step run=327



.step run=328



.step run=329



.step run=330



.step run=331



.step run=332



.step run=333



.step run=334



.step run=335



.step run=336



.step run=337



.step run=338



.step run=339



.step run=340



.step run=341



.step run=342



.step run=343



.step run=344



.step run=345



.step run=346



.step run=347



.step run=348



.step run=349



.step run=350



.step run=351



.step run=352



.step run=353



.step run=354



.step run=355



.step run=356



.step run=357



.step run=358



.step run=359



.step run=360



.step run=361



.step run=362



.step run=363



.step run=364



.step run=365



.step run=366



.step run=367



.step run=368



.step run=369



.step run=370



.step run=371



.step run=372



.step run=373



.step run=374



.step run=375



.step run=376



.step run=377



.step run=378



.step run=379



.step run=380



.step run=381



.step run=382



.step run=383



.step run=384



.step run=385



.step run=386



.step run=387



.step run=388



.step run=389



.step run=390



.step run=391



.step run=392



.step run=393



.step run=394



.step run=395



.step run=396



.step run=397



.step run=398



.step run=399



.step run=400



.step run=401



.step run=402



.step run=403



.step run=404



.step run=405



.step run=406



.step run=407



.step run=408



.step run=409



.step run=410



.step run=411



.step run=412



.step run=413



.step run=414



.step run=415



.step run=416



.step run=417



.step run=418



.step run=419



.step run=420



.step run=421



.step run=422



.step run=423



.step run=424



.step run=425



.step run=426



.step run=427



.step run=428



.step run=429



.step run=430



.step run=431



.step run=432



.step run=433



.step run=434



.step run=435



.step run=436



.step run=437



.step run=438



.step run=439



.step run=440



.step run=441



.step run=442



.step run=443



.step run=444



.step run=445



.step run=446



.step run=447



.step run=448



.step run=449



.step run=450



.step run=451



.step run=452



.step run=453



.step run=454



.step run=455



.step run=456



.step run=457



.step run=458



.step run=459



.step run=460



.step run=461



.step run=462



.step run=463



.step run=464



.step run=465



.step run=466



.step run=467



.step run=468



.step run=469



.step run=470



.step run=471



.step run=472



.step run=473



.step run=474



.step run=475



.step run=476



.step run=477



.step run=478



.step run=479



.step run=480



.step run=481



.step run=482



.step run=483



.step run=484



.step run=485



.step run=486



.step run=487



.step run=488



.step run=489



.step run=490



.step run=491



.step run=492



.step run=493



.step run=494



.step run=495



.step run=496



.step run=497



.step run=498



.step run=499



.step run=500



.step run=501



.step run=502



.step run=503



.step run=504



.step run=505



.step run=506



.step run=507



.step run=508



.step run=509



.step run=510



.step run=511



.step run=512



.step run=513



.step run=514



.step run=515



.step run=516



.step run=517



.step run=518



.step run=519



.step run=520



.step run=521



.step run=522



.step run=523



.step run=524



.step run=525



.step run=526



.step run=527



.step run=528



.step run=529



.step run=530



.step run=531



.step run=532



.step run=533



.step run=534



.step run=535



.step run=536



.step run=537



.step run=538



.step run=539



.step run=540



.step run=541



.step run=542



.step run=543



.step run=544



.step run=545



.step run=546



.step run=547



.step run=548



.step run=549



.step run=550



.step run=551



.step run=552



.step run=553



.step run=554



.step run=555



.step run=556



.step run=557



.step run=558



.step run=559



.step run=560



.step run=561



.step run=562



.step run=563



.step run=564



.step run=565



.step run=566



.step run=567



.step run=568



.step run=569



.step run=570



.step run=571



.step run=572



.step run=573



.step run=574



.step run=575



.step run=576



.step run=577



.step run=578



.step run=579



.step run=580



.step run=581



.step run=582



.step run=583



.step run=584



.step run=585



.step run=586



.step run=587



.step run=588



.step run=589



.step run=590



.step run=591



.step run=592



.step run=593



.step run=594



.step run=595



.step run=596



.step run=597



.step run=598



.step run=599



.step run=600



.step run=601



.step run=602



.step run=603



.step run=604



.step run=605



.step run=606



.step run=607



.step run=608



.step run=609



.step run=610



.step run=611



.step run=612



.step run=613



.step run=614



.step run=615



.step run=616



.step run=617



.step run=618



.step run=619



.step run=620



.step run=621



.step run=622



.step run=623



.step run=624



.step run=625



.step run=626



.step run=627



.step run=628



.step run=629



.step run=630



.step run=631



.step run=632



.step run=633



.step run=634



.step run=635



.step run=636



.step run=637



.step run=638



.step run=639



.step run=640



.step run=641



.step run=642



.step run=643



.step run=644



.step run=645



.step run=646



.step run=647



.step run=648



.step run=649



.step run=650



.step run=651



.step run=652



.step run=653



.step run=654



.step run=655



.step run=656



.step run=657



.step run=658



.step run=659



.step run=660



.step run=661



.step run=662



.step run=663



.step run=664



.step run=665



.step run=666



.step run=667



.step run=668



.step run=669



.step run=670



.step run=671



.step run=672



.step run=673



.step run=674



.step run=675



.step run=676



.step run=677



.step run=678



.step run=679



.step run=680



.step run=681



.step run=682



.step run=683



.step run=684



.step run=685



.step run=686



.step run=687



.step run=688



.step run=689



.step run=690



.step run=691



.step run=692



.step run=693



.step run=694



.step run=695



.step run=696



.step run=697



.step run=698



.step run=699



.step run=700



.step run=701



.step run=702



.step run=703



.step run=704



.step run=705



.step run=706



.step run=707



.step run=708



.step run=709



.step run=710



.step run=711



.step run=712



.step run=713



.step run=714



.step run=715



.step run=716



.step run=717



.step run=718



.step run=719



.step run=720



.step run=721



.step run=722



.step run=723



.step run=724



.step run=725



.step run=726



.step run=727



.step run=728



.step run=729



.step run=730



.step run=731



.step run=732



.step run=733



.step run=734



.step run=735



.step run=736



.step run=737



.step run=738



.step run=739



.step run=740



.step run=741



.step run=742



.step run=743



.step run=744



.step run=745



.step run=746



.step run=747



.step run=748



.step run=749



.step run=750



.step run=751



.step run=752



.step run=753



.step run=754



.step run=755



.step run=756



.step run=757



.step run=758



.step run=759



.step run=760



.step run=761



.step run=762



.step run=763



.step run=764



.step run=765



.step run=766



.step run=767



.step run=768



.step run=769



.step run=770



.step run=771



.step run=772



.step run=773



.step run=774



.step run=775



.step run=776



.step run=777



.step run=778



.step run=779



.step run=780



.step run=781



.step run=782



.step run=783



.step run=784



.step run=785



.step run=786



.step run=787



.step run=788



.step run=789



.step run=790



.step run=791



.step run=792



.step run=793



.step run=794



.step run=795



.step run=796



.step run=797



.step run=798



.step run=799



.step run=800



.step run=801



.step run=802



.step run=803



.step run=804



.step run=805



.step run=806



.step run=807



.step run=808



.step run=809



.step run=810



.step run=811



.step run=812



.step run=813



.step run=814



.step run=815



.step run=816



.step run=817



.step run=818



.step run=819



.step run=820



.step run=821



.step run=822



.step run=823



.step run=824



.step run=825



.step run=826



.step run=827



.step run=828



.step run=829



.step run=830



.step run=831



.step run=832



.step run=833



.step run=834



.step run=835



.step run=836



.step run=837



.step run=838



.step run=839



.step run=840



.step run=841



.step run=842



.step run=843



.step run=844



.step run=845



.step run=846



.step run=847



.step run=848



.step run=849



.step run=850



.step run=851



.step run=852



.step run=853



.step run=854



.step run=855



.step run=856



.step run=857



.step run=858



.step run=859



.step run=860



.step run=861



.step run=862



.step run=863



.step run=864



.step run=865



.step run=866



.step run=867



.step run=868



.step run=869



.step run=870



.step run=871



.step run=872



.step run=873



.step run=874



.step run=875



.step run=876



.step run=877



.step run=878



.step run=879



.step run=880



.step run=881



.step run=882



.step run=883



.step run=884



.step run=885



.step run=886



.step run=887



.step run=888



.step run=889



.step run=890



.step run=891



.step run=892



.step run=893



.step run=894



.step run=895



.step run=896



.step run=897



.step run=898



.step run=899



.step run=900



.step run=901



.step run=902



.step run=903



.step run=904



.step run=905



.step run=906



.step run=907



.step run=908



.step run=909



.step run=910



.step run=911



.step run=912



.step run=913



.step run=914



.step run=915



.step run=916



.step run=917



.step run=918



.step run=919



.step run=920



.step run=921



.step run=922



.step run=923



.step run=924



.step run=925



.step run=926



.step run=927



.step run=928



.step run=929



.step run=930



.step run=931



.step run=932



.step run=933



.step run=934



.step run=935



.step run=936



.step run=937



.step run=938



.step run=939



.step run=940



.step run=941



.step run=942



.step run=943



.step run=944



.step run=945



.step run=946



.step run=947



.step run=948



.step run=949



.step run=950



.step run=951



.step run=952



.step run=953



.step run=954



.step run=955



.step run=956



.step run=957



.step run=958



.step run=959



.step run=960



.step run=961



.step run=962



.step run=963



.step run=964



.step run=965



.step run=966



.step run=967



.step run=968



.step run=969



.step run=970



.step run=971



.step run=972



.step run=973



.step run=974



.step run=975



.step run=976



.step run=977



.step run=978



.step run=979



.step run=980



.step run=981



.step run=982



.step run=983



.step run=984



.step run=985



.step run=986



.step run=987



.step run=988



.step run=989



.step run=990



.step run=991



.step run=992



.step run=993



.step run=994



.step run=995



.step run=996



.step run=997



.step run=998



.step run=999



.step run=1000



.step run=1001



.step run=1002



.step run=1003



.step run=1004



.step run=1005



.step run=1006



.step run=1007



.step run=1008



.step run=1009



.step run=1010



.step run=1011



.step run=1012



.step run=1013



.step run=1014



.step run=1015



.step run=1016



.step run=1017



.step run=1018



.step run=1019



.step run=1020



.step run=1021



.step run=1022



.step run=1023



.step run=1024



.step run=1025



.step run=1026



.step run=1027



.step run=1028



.step run=1029



.step run=1030



.step run=1031



.step run=1032



.step run=1033



.step run=1034



.step run=1035



.step run=1036



.step run=1037



.step run=1038



.step run=1039



.step run=1040



.step run=1041



.step run=1042



.step run=1043



.step run=1044



.step run=1045



.step run=1046



.step run=1047



.step run=1048



.step run=1049



.step run=1050



.step run=1051



.step run=1052



.step run=1053



.step run=1054



.step run=1055



.step run=1056



.step run=1057



.step run=1058



.step run=1059



.step run=1060



.step run=1061



.step run=1062



.step run=1063



.step run=1064



.step run=1065



.step run=1066



.step run=1067



.step run=1068



.step run=1069



.step run=1070



.step run=1071



.step run=1072



.step run=1073



.step run=1074



.step run=1075



.step run=1076



.step run=1077



.step run=1078



.step run=1079



.step run=1080



.step run=1081



.step run=1082



.step run=1083



.step run=1084



.step run=1085



.step run=1086



.step run=1087



.step run=1088



.step run=1089



.step run=1090



.step run=1091



.step run=1092



.step run=1093



.step run=1094



.step run=1095



.step run=1096



.step run=1097



.step run=1098



.step run=1099



.step run=1100



.step run=1101



.step run=1102



.step run=1103



.step run=1104



.step run=1105



.step run=1106



.step run=1107



.step run=1108



.step run=1109



.step run=1110



.step run=1111



.step run=1112



.step run=1113



.step run=1114



.step run=1115



.step run=1116



.step run=1117



.step run=1118



.step run=1119



.step run=1120



.step run=1121



.step run=1122



.step run=1123



.step run=1124



.step run=1125



.step run=1126



.step run=1127



.step run=1128



.step run=1129



.step run=1130



.step run=1131



.step run=1132



.step run=1133



.step run=1134



.step run=1135



.step run=1136



.step run=1137



.step run=1138



.step run=1139



.step run=1140



.step run=1141



.step run=1142



.step run=1143



.step run=1144



.step run=1145



.step run=1146



.step run=1147



.step run=1148



.step run=1149



.step run=1150



.step run=1151



.step run=1152



.step run=1153



.step run=1154



.step run=1155



.step run=1156



.step run=1157



.step run=1158



.step run=1159



.step run=1160



.step run=1161



.step run=1162



.step run=1163



.step run=1164



.step run=1165



.step run=1166



.step run=1167



.step run=1168



.step run=1169



.step run=1170



.step run=1171



.step run=1172



.step run=1173



.step run=1174



.step run=1175



.step run=1176



.step run=1177



.step run=1178



.step run=1179



.step run=1180



.step run=1181



.step run=1182



.step run=1183



.step run=1184



.step run=1185



.step run=1186



.step run=1187



.step run=1188



.step run=1189



.step run=1190



.step run=1191



.step run=1192



.step run=1193



.step run=1194



.step run=1195



.step run=1196



.step run=1197



.step run=1198



.step run=1199



.step run=1200



.step run=1201



.step run=1202



.step run=1203



.step run=1204



.step run=1205



.step run=1206



.step run=1207



.step run=1208



.step run=1209



.step run=1210



.step run=1211



.step run=1212



.step run=1213



.step run=1214



.step run=1215



.step run=1216



.step run=1217



.step run=1218



.step run=1219



.step run=1220



.step run=1221



.step run=1222



.step run=1223



.step run=1224



.step run=1225



.step run=1226



.step run=1227



.step run=1228



.step run=1229



.step run=1230



.step run=1231



.step run=1232



.step run=1233



.step run=1234



.step run=1235



.step run=1236



.step run=1237



.step run=1238



.step run=1239



.step run=1240



.step run=1241



.step run=1242



.step run=1243



.step run=1244



.step run=1245



.step run=1246



.step run=1247



.step run=1248



.step run=1249



.step run=1250



.step run=1251



.step run=1252



.step run=1253



.step run=1254



.step run=1255



.step run=1256



.step run=1257



.step run=1258



.step run=1259



.step run=1260



.step run=1261



.step run=1262



.step run=1263



.step run=1264



.step run=1265



.step run=1266



.step run=1267



.step run=1268



.step run=1269



.step run=1270



.step run=1271



.step run=1272



.step run=1273



.step run=1274



.step run=1275



.step run=1276



.step run=1277



.step run=1278



.step run=1279



.step run=1280



.step run=1281



.step run=1282



.step run=1283



.step run=1284



.step run=1285



.step run=1286



.step run=1287



.step run=1288



.step run=1289



.step run=1290



.step run=1291



.step run=1292



.step run=1293



.step run=1294



.step run=1295



.step run=1296



.step run=1297



.step run=1298



.step run=1299



.step run=1300



.step run=1301



.step run=1302



.step run=1303



.step run=1304



.step run=1305



.step run=1306



.step run=1307



.step run=1308



.step run=1309



.step run=1310



.step run=1311



.step run=1312



.step run=1313



.step run=1314



.step run=1315



.step run=1316



.step run=1317



.step run=1318



.step run=1319



.step run=1320



.step run=1321



.step run=1322



.step run=1323



.step run=1324



.step run=1325



.step run=1326



.step run=1327



.step run=1328



.step run=1329



.step run=1330



.step run=1331



.step run=1332



.step run=1333



.step run=1334



.step run=1335



.step run=1336



.step run=1337



.step run=1338



.step run=1339



.step run=1340



.step run=1341



.step run=1342



.step run=1343



.step run=1344



.step run=1345



.step run=1346



.step run=1347



.step run=1348



.step run=1349



.step run=1350



.step run=1351



.step run=1352



.step run=1353



.step run=1354



.step run=1355



.step run=1356



.step run=1357



.step run=1358



.step run=1359



.step run=1360



.step run=1361



.step run=1362



.step run=1363



.step run=1364



.step run=1365



.step run=1366



.step run=1367



.step run=1368



.step run=1369



.step run=1370



.step run=1371



.step run=1372



.step run=1373



.step run=1374



.step run=1375



.step run=1376



.step run=1377



.step run=1378



.step run=1379



.step run=1380



.step run=1381



.step run=1382



.step run=1383



.step run=1384



.step run=1385



.step run=1386



.step run=1387



.step run=1388



.step run=1389



.step run=1390



.step run=1391



.step run=1392



.step run=1393



.step run=1394



.step run=1395



.step run=1396



.step run=1397



.step run=1398



.step run=1399



.step run=1400



.step run=1401



.step run=1402



.step run=1403



.step run=1404



.step run=1405



.step run=1406



.step run=1407



.step run=1408



.step run=1409



.step run=1410



.step run=1411



.step run=1412



.step run=1413



.step run=1414



.step run=1415



.step run=1416



.step run=1417



.step run=1418



.step run=1419



.step run=1420



.step run=1421



.step run=1422



.step run=1423



.step run=1424



.step run=1425



.step run=1426



.step run=1427



.step run=1428



.step run=1429



.step run=1430



.step run=1431



.step run=1432



.step run=1433



.step run=1434



.step run=1435



.step run=1436



.step run=1437



.step run=1438



.step run=1439



.step run=1440



.step run=1441



.step run=1442



.step run=1443



.step run=1444



.step run=1445



.step run=1446



.step run=1447



.step run=1448



.step run=1449



.step run=1450



.step run=1451



.step run=1452



.step run=1453



.step run=1454



.step run=1455



.step run=1456



.step run=1457



.step run=1458



.step run=1459



.step run=1460



.step run=1461



.step run=1462



.step run=1463



.step run=1464



.step run=1465



.step run=1466



.step run=1467



.step run=1468



.step run=1469



.step run=1470



.step run=1471



.step run=1472



.step run=1473



.step run=1474



.step run=1475



.step run=1476



.step run=1477



.step run=1478



.step run=1479



.step run=1480



.step run=1481



.step run=1482



.step run=1483



.step run=1484



.step run=1485



.step run=1486



.step run=1487



.step run=1488



.step run=1489



.step run=1490



.step run=1491



.step run=1492



.step run=1493



.step run=1494



.step run=1495



.step run=1496



.step run=1497



.step run=1498



.step run=1499



.step run=1500



.step run=1501



.step run=1502



.step run=1503



.step run=1504



.step run=1505



.step run=1506



.step run=1507



.step run=1508



.step run=1509



.step run=1510



.step run=1511



.step run=1512



.step run=1513



.step run=1514



.step run=1515



.step run=1516



.step run=1517



.step run=1518



.step run=1519



.step run=1520



.step run=1521



.step run=1522



.step run=1523



.step run=1524



.step run=1525



.step run=1526



.step run=1527



.step run=1528



.step run=1529



.step run=1530



.step run=1531



.step run=1532



.step run=1533



.step run=1534



.step run=1535



.step run=1536



.step run=1537



.step run=1538



.step run=1539



.step run=1540



.step run=1541



.step run=1542



.step run=1543



.step run=1544



.step run=1545



.step run=1546



.step run=1547



.step run=1548



.step run=1549



.step run=1550



.step run=1551



.step run=1552



.step run=1553



.step run=1554



.step run=1555



.step run=1556



.step run=1557



.step run=1558



.step run=1559



.step run=1560



.step run=1561



.step run=1562



.step run=1563



.step run=1564



.step run=1565



.step run=1566



.step run=1567



.step run=1568



.step run=1569



.step run=1570



.step run=1571



.step run=1572



.step run=1573



.step run=1574



.step run=1575



.step run=1576



.step run=1577



.step run=1578



.step run=1579



.step run=1580



.step run=1581



.step run=1582



.step run=1583



.step run=1584



.step run=1585



.step run=1586



.step run=1587



.step run=1588



.step run=1589



.step run=1590



.step run=1591



.step run=1592



.step run=1593



.step run=1594



.step run=1595



.step run=1596



.step run=1597



.step run=1598



.step run=1599



.step run=1600



.step run=1601



.step run=1602



.step run=1603



.step run=1604



.step run=1605



.step run=1606



.step run=1607



.step run=1608



.step run=1609



.step run=1610



.step run=1611



.step run=1612



.step run=1613



.step run=1614



.step run=1615



.step run=1616



.step run=1617



.step run=1618



.step run=1619



.step run=1620



.step run=1621



.step run=1622



.step run=1623



.step run=1624



.step run=1625



.step run=1626



.step run=1627



.step run=1628



.step run=1629



.step run=1630



.step run=1631



.step run=1632



.step run=1633



.step run=1634



.step run=1635



.step run=1636



.step run=1637



.step run=1638



.step run=1639



.step run=1640



.step run=1641



.step run=1642



.step run=1643



.step run=1644



.step run=1645



.step run=1646



.step run=1647



.step run=1648



.step run=1649



.step run=1650



.step run=1651



.step run=1652



.step run=1653



.step run=1654



.step run=1655



.step run=1656



.step run=1657



.step run=1658



.step run=1659



.step run=1660



.step run=1661



.step run=1662



.step run=1663



.step run=1664



.step run=1665



.step run=1666



.step run=1667



.step run=1668



.step run=1669



.step run=1670



.step run=1671



.step run=1672



.step run=1673



.step run=1674



.step run=1675



.step run=1676



.step run=1677



.step run=1678



.step run=1679



.step run=1680



.step run=1681



.step run=1682



.step run=1683



.step run=1684



.step run=1685



.step run=1686



.step run=1687



.step run=1688



.step run=1689



.step run=1690



.step run=1691



.step run=1692



.step run=1693



.step run=1694



.step run=1695



.step run=1696



.step run=1697



.step run=1698



.step run=1699



.step run=1700



.step run=1701



.step run=1702



.step run=1703



.step run=1704



.step run=1705



.step run=1706



.step run=1707



.step run=1708



.step run=1709



.step run=1710



.step run=1711



.step run=1712



.step run=1713



.step run=1714



.step run=1715



.step run=1716



.step run=1717



.step run=1718



.step run=1719



.step run=1720



.step run=1721



.step run=1722



.step run=1723



.step run=1724



.step run=1725



.step run=1726



.step run=1727



.step run=1728



.step run=1729



.step run=1730



.step run=1731



.step run=1732



.step run=1733



.step run=1734



.step run=1735



.step run=1736



.step run=1737



.step run=1738



.step run=1739



.step run=1740



.step run=1741



.step run=1742



.step run=1743



.step run=1744



.step run=1745



.step run=1746



.step run=1747



.step run=1748



.step run=1749



.step run=1750



.step run=1751



.step run=1752



.step run=1753



.step run=1754



.step run=1755



.step run=1756



.step run=1757



.step run=1758



.step run=1759



.step run=1760



.step run=1761



.step run=1762



.step run=1763



.step run=1764



.step run=1765



.step run=1766



.step run=1767



.step run=1768



.step run=1769



.step run=1770



.step run=1771



.step run=1772



.step run=1773



.step run=1774



.step run=1775



.step run=1776



.step run=1777



.step run=1778



.step run=1779



.step run=1780



.step run=1781



.step run=1782



.step run=1783



.step run=1784



.step run=1785



.step run=1786



.step run=1787



.step run=1788



.step run=1789



.step run=1790



.step run=1791



.step run=1792



.step run=1793



.step run=1794



.step run=1795



.step run=1796



.step run=1797



.step run=1798



.step run=1799



.step run=1800



.step run=1801



.step run=1802



.step run=1803



.step run=1804



.step run=1805



.step run=1806



.step run=1807



.step run=1808



.step run=1809



.step run=1810



.step run=1811



.step run=1812



.step run=1813



.step run=1814



.step run=1815



.step run=1816



.step run=1817



.step run=1818



.step run=1819



.step run=1820



.step run=1821



.step run=1822



.step run=1823



.step run=1824



.step run=1825



.step run=1826



.step run=1827



.step run=1828



.step run=1829



.step run=1830



.step run=1831



.step run=1832



.step run=1833



.step run=1834



.step run=1835



.step run=1836



.step run=1837



.step run=1838



.step run=1839



.step run=1840



.step run=1841



.step run=1842



.step run=1843



.step run=1844



.step run=1845



.step run=1846



.step run=1847



.step run=1848



.step run=1849



.step run=1850



.step run=1851



.step run=1852



.step run=1853



.step run=1854



.step run=1855



.step run=1856



.step run=1857



.step run=1858



.step run=1859



.step run=1860



.step run=1861



.step run=1862



.step run=1863



.step run=1864



.step run=1865



.step run=1866



.step run=1867



.step run=1868



.step run=1869



.step run=1870



.step run=1871



.step run=1872



.step run=1873



.step run=1874



.step run=1875



.step run=1876



.step run=1877



.step run=1878



.step run=1879



.step run=1880



.step run=1881



.step run=1882



.step run=1883



.step run=1884



.step run=1885



.step run=1886



.step run=1887



.step run=1888



.step run=1889



.step run=1890



.step run=1891



.step run=1892



.step run=1893



.step run=1894



.step run=1895



.step run=1896



.step run=1897



.step run=1898



.step run=1899



.step run=1900



.step run=1901



.step run=1902



.step run=1903



.step run=1904



.step run=1905



.step run=1906



.step run=1907



.step run=1908



.step run=1909



.step run=1910



.step run=1911



.step run=1912



.step run=1913



.step run=1914



.step run=1915



.step run=1916



.step run=1917



.step run=1918



.step run=1919



.step run=1920



.step run=1921



.step run=1922



.step run=1923



.step run=1924



.step run=1925



.step run=1926



.step run=1927



.step run=1928



.step run=1929



.step run=1930



.step run=1931



.step run=1932



.step run=1933



.step run=1934



.step run=1935



.step run=1936



.step run=1937



.step run=1938



.step run=1939



.step run=1940



.step run=1941



.step run=1942



.step run=1943



.step run=1944



.step run=1945



.step run=1946



.step run=1947



.step run=1948



.step run=1949



.step run=1950



.step run=1951



.step run=1952



.step run=1953



.step run=1954



.step run=1955



.step run=1956



.step run=1957



.step run=1958



.step run=1959



.step run=1960



.step run=1961



.step run=1962



.step run=1963



.step run=1964



.step run=1965



.step run=1966



.step run=1967



.step run=1968



.step run=1969



.step run=1970



.step run=1971



.step run=1972



.step run=1973



.step run=1974



.step run=1975



.step run=1976



.step run=1977



.step run=1978



.step run=1979



.step run=1980



.step run=1981



.step run=1982



.step run=1983



.step run=1984



.step run=1985



.step run=1986



.step run=1987



.step run=1988



.step run=1989



.step run=1990



.step run=1991



.step run=1992



.step run=1993



.step run=1994



.step run=1995



.step run=1996



.step run=1997



.step run=1998



.step run=1999



.step run=2000



.step run=2001



.step run=2002



.step run=2003



.step run=2004



.step run=2005



.step run=2006



.step run=2007



.step run=2008



.step run=2009



.step run=2010



.step run=2011



.step run=2012



.step run=2013



.step run=2014



.step run=2015



.step run=2016



.step run=2017



.step run=2018



.step run=2019



.step run=2020



.step run=2021



.step run=2022



.step run=2023



.step run=2024



.step run=2025



.step run=2026



.step run=2027



.step run=2028



.step run=2029



.step run=2030



.step run=2031



.step run=2032



.step run=2033



.step run=2034



.step run=2035



.step run=2036



.step run=2037



.step run=2038



.step run=2039



.step run=2040



.step run=2041



.step run=2042



.step run=2043



.step run=2044



.step run=2045



.step run=2046



.step run=2047



.step run=2048



.step run=2049



.step run=2050



.step run=2051



.step run=2052



.step run=2053



.step run=2054



.step run=2055



.step run=2056



.step run=2057



.step run=2058



.step run=2059



.step run=2060



.step run=2061



.step run=2062



.step run=2063



.step run=2064



.step run=2065



.step run=2066



.step run=2067



.step run=2068



.step run=2069



.step run=2070



.step run=2071



.step run=2072



.step run=2073



.step run=2074



.step run=2075



.step run=2076



.step run=2077



.step run=2078



.step run=2079



.step run=2080



.step run=2081



.step run=2082



.step run=2083



.step run=2084



.step run=2085



.step run=2086



.step run=2087



.step run=2088



.step run=2089



.step run=2090



.step run=2091



.step run=2092



.step run=2093



.step run=2094



.step run=2095



.step run=2096



.step run=2097



.step run=2098



.step run=2099



.step run=2100



.step run=2101



.step run=2102



.step run=2103



.step run=2104



.step run=2105



.step run=2106



.step run=2107



.step run=2108



.step run=2109



.step run=2110



.step run=2111



.step run=2112



.step run=2113



.step run=2114



.step run=2115



.step run=2116



.step run=2117



.step run=2118



.step run=2119



.step run=2120



.step run=2121



.step run=2122



.step run=2123



.step run=2124



.step run=2125



.step run=2126



.step run=2127



.step run=2128



.step run=2129



.step run=2130



.step run=2131



.step run=2132



.step run=2133



.step run=2134



.step run=2135



.step run=2136



.step run=2137



.step run=2138



.step run=2139



.step run=2140



.step run=2141



.step run=2142



.step run=2143



.step run=2144



.step run=2145



.step run=2146



.step run=2147



.step run=2148



.step run=2149



.step run=2150



.step run=2151



.step run=2152



.step run=2153



.step run=2154



.step run=2155



.step run=2156



.step run=2157



.step run=2158



.step run=2159



.step run=2160



.step run=2161



.step run=2162



.step run=2163



.step run=2164



.step run=2165



.step run=2166



.step run=2167



.step run=2168



.step run=2169



.step run=2170



.step run=2171



.step run=2172



.step run=2173



.step run=2174



.step run=2175



.step run=2176



.step run=2177



.step run=2178



.step run=2179



.step run=2180



.step run=2181



.step run=2182



.step run=2183



.step run=2184



.step run=2185



.step run=2186



.step run=2187



.step run=2188



.step run=2189



.step run=2190



.step run=2191



.step run=2192



.step run=2193



.step run=2194



.step run=2195



.step run=2196



.step run=2197



.step run=2198



.step run=2199



.step run=2200



.step run=2201



.step run=2202



.step run=2203



.step run=2204



.step run=2205



.step run=2206



.step run=2207



.step run=2208



.step run=2209



.step run=2210



.step run=2211



.step run=2212



.step run=2213



.step run=2214



.step run=2215



.step run=2216



.step run=2217



.step run=2218



.step run=2219



.step run=2220



.step run=2221



.step run=2222



.step run=2223



.step run=2224



.step run=2225



.step run=2226



.step run=2227



.step run=2228



.step run=2229



.step run=2230



.step run=2231



.step run=2232



.step run=2233



.step run=2234



.step run=2235



.step run=2236



.step run=2237



.step run=2238



.step run=2239



.step run=2240



.step run=2241



.step run=2242



.step run=2243



.step run=2244



.step run=2245



.step run=2246



.step run=2247



.step run=2248



.step run=2249



.step run=2250



.step run=2251



.step run=2252



.step run=2253



.step run=2254



.step run=2255



.step run=2256



.step run=2257



.step run=2258



.step run=2259



.step run=2260



.step run=2261



.step run=2262



.step run=2263



.step run=2264



.step run=2265



.step run=2266



.step run=2267



.step run=2268



.step run=2269



.step run=2270



.step run=2271



.step run=2272



.step run=2273



.step run=2274



.step run=2275



.step run=2276



.step run=2277



.step run=2278



.step run=2279



.step run=2280



.step run=2281



.step run=2282



.step run=2283



.step run=2284



.step run=2285



.step run=2286



.step run=2287



.step run=2288



.step run=2289



.step run=2290



.step run=2291



.step run=2292



.step run=2293



.step run=2294



.step run=2295



.step run=2296



.step run=2297



.step run=2298



.step run=2299



.step run=2300



.step run=2301



.step run=2302



.step run=2303



.step run=2304



.step run=2305



.step run=2306



.step run=2307



.step run=2308



.step run=2309



.step run=2310



.step run=2311



.step run=2312



.step run=2313



.step run=2314



.step run=2315



.step run=2316



.step run=2317



.step run=2318



.step run=2319



.step run=2320



.step run=2321



.step run=2322



.step run=2323



.step run=2324



.step run=2325



.step run=2326



.step run=2327



.step run=2328



.step run=2329



.step run=2330



.step run=2331



.step run=2332



.step run=2333



.step run=2334



.step run=2335



.step run=2336



.step run=2337



.step run=2338



.step run=2339



.step run=2340



.step run=2341



.step run=2342



.step run=2343



.step run=2344



.step run=2345



.step run=2346



.step run=2347



.step run=2348



.step run=2349



.step run=2350



.step run=2351



.step run=2352



.step run=2353



.step run=2354



.step run=2355



.step run=2356



.step run=2357



.step run=2358



.step run=2359



.step run=2360



.step run=2361



.step run=2362



.step run=2363



.step run=2364



.step run=2365



.step run=2366



.step run=2367



.step run=2368



.step run=2369



.step run=2370



.step run=2371



.step run=2372



.step run=2373



.step run=2374



.step run=2375



.step run=2376



.step run=2377



.step run=2378



.step run=2379



.step run=2380



.step run=2381



.step run=2382



.step run=2383



.step run=2384



.step run=2385



.step run=2386



.step run=2387



.step run=2388



.step run=2389



.step run=2390



.step run=2391



.step run=2392



.step run=2393



.step run=2394



.step run=2395



.step run=2396



.step run=2397



.step run=2398



.step run=2399



.step run=2400



.step run=2401



.step run=2402



.step run=2403



.step run=2404



.step run=2405



.step run=2406



.step run=2407



.step run=2408



.step run=2409



.step run=2410



.step run=2411



.step run=2412



.step run=2413



.step run=2414



.step run=2415



.step run=2416



.step run=2417



.step run=2418



.step run=2419



.step run=2420



.step run=2421



.step run=2422



.step run=2423



.step run=2424



.step run=2425



.step run=2426



.step run=2427



.step run=2428



.step run=2429



.step run=2430



.step run=2431



.step run=2432



.step run=2433



.step run=2434



.step run=2435



.step run=2436



.step run=2437



.step run=2438



.step run=2439



.step run=2440



.step run=2441



.step run=2442



.step run=2443



.step run=2444



.step run=2445



.step run=2446



.step run=2447



.step run=2448



.step run=2449



.step run=2450



.step run=2451



.step run=2452



.step run=2453



.step run=2454



.step run=2455



.step run=2456



.step run=2457



.step run=2458



.step run=2459



.step run=2460



.step run=2461



.step run=2462



.step run=2463



.step run=2464



.step run=2465



.step run=2466



.step run=2467



.step run=2468



.step run=2469



.step run=2470



.step run=2471



.step run=2472



.step run=2473



.step run=2474



.step run=2475



.step run=2476



.step run=2477



.step run=2478



.step run=2479



.step run=2480



.step run=2481



.step run=2482



.step run=2483



.step run=2484



.step run=2485



.step run=2486



.step run=2487



.step run=2488



.step run=2489



.step run=2490



.step run=2491



.step run=2492



.step run=2493



.step run=2494



.step run=2495



.step run=2496



.step run=2497



.step run=2498



.step run=2499



.step run=2500



.step run=2501



.step run=2502



.step run=2503



.step run=2504



.step run=2505



.step run=2506



.step run=2507



.step run=2508



.step run=2509



.step run=2510



.step run=2511



.step run=2512



.step run=2513



.step run=2514



.step run=2515



.step run=2516



.step run=2517



.step run=2518



.step run=2519



.step run=2520



.step run=2521



.step run=2522



.step run=2523



.step run=2524



.step run=2525



.step run=2526



.step run=2527



.step run=2528



.step run=2529



.step run=2530



.step run=2531



.step run=2532



.step run=2533



.step run=2534



.step run=2535



.step run=2536



.step run=2537



.step run=2538



.step run=2539



.step run=2540



.step run=2541



.step run=2542



.step run=2543



.step run=2544



.step run=2545



.step run=2546



.step run=2547



.step run=2548



.step run=2549



.step run=2550



.step run=2551



.step run=2552



.step run=2553



.step run=2554



.step run=2555



.step run=2556



.step run=2557



.step run=2558



.step run=2559



.step run=2560



.step run=2561



.step run=2562



.step run=2563



.step run=2564



.step run=2565



.step run=2566



.step run=2567



.step run=2568



.step run=2569



.step run=2570



.step run=2571



.step run=2572



.step run=2573



.step run=2574



.step run=2575



.step run=2576



.step run=2577



.step run=2578



.step run=2579



.step run=2580



.step run=2581



.step run=2582



.step run=2583



.step run=2584



.step run=2585



.step run=2586



.step run=2587



.step run=2588



.step run=2589



.step run=2590



.step run=2591



.step run=2592



.step run=2593



.step run=2594



.step run=2595



.step run=2596



.step run=2597



.step run=2598



.step run=2599



.step run=2600



.step run=2601



.step run=2602



.step run=2603



.step run=2604



.step run=2605



.step run=2606



.step run=2607



.step run=2608



.step run=2609



.step run=2610



.step run=2611



.step run=2612



.step run=2613



.step run=2614



.step run=2615



.step run=2616



.step run=2617



.step run=2618



.step run=2619



.step run=2620



.step run=2621



.step run=2622



.step run=2623



.step run=2624



.step run=2625



.step run=2626



.step run=2627



.step run=2628



.step run=2629



.step run=2630



.step run=2631



.step run=2632



.step run=2633



.step run=2634



.step run=2635



.step run=2636



.step run=2637



.step run=2638



.step run=2639



.step run=2640



.step run=2641



.step run=2642



.step run=2643



.step run=2644



.step run=2645



.step run=2646



.step run=2647



.step run=2648



.step run=2649



.step run=2650



.step run=2651



.step run=2652



.step run=2653



.step run=2654



.step run=2655



.step run=2656



.step run=2657



.step run=2658



.step run=2659



.step run=2660



.step run=2661



.step run=2662



.step run=2663



.step run=2664



.step run=2665



.step run=2666



.step run=2667



.step run=2668



.step run=2669



.step run=2670



.step run=2671



.step run=2672



.step run=2673



.step run=2674



.step run=2675



.step run=2676



.step run=2677



.step run=2678



.step run=2679



.step run=2680



.step run=2681



.step run=2682



.step run=2683



.step run=2684



.step run=2685



.step run=2686



.step run=2687



.step run=2688



.step run=2689



.step run=2690



.step run=2691



.step run=2692



.step run=2693



.step run=2694



.step run=2695



.step run=2696



.step run=2697



.step run=2698



.step run=2699



.step run=2700



.step run=2701



.step run=2702



.step run=2703



.step run=2704



.step run=2705



.step run=2706



.step run=2707



.step run=2708



.step run=2709



.step run=2710



.step run=2711



.step run=2712



.step run=2713



.step run=2714



.step run=2715



.step run=2716



.step run=2717



.step run=2718



.step run=2719



.step run=2720



.step run=2721



.step run=2722



.step run=2723



.step run=2724



.step run=2725



.step run=2726



.step run=2727



.step run=2728



.step run=2729



.step run=2730



.step run=2731



.step run=2732



.step run=2733



.step run=2734



.step run=2735



.step run=2736



.step run=2737



.step run=2738



.step run=2739



.step run=2740



.step run=2741



.step run=2742



.step run=2743



.step run=2744



.step run=2745



.step run=2746



.step run=2747



.step run=2748



.step run=2749



.step run=2750



.step run=2751



.step run=2752



.step run=2753



.step run=2754



.step run=2755



.step run=2756



.step run=2757



.step run=2758



.step run=2759



.step run=2760



.step run=2761



.step run=2762



.step run=2763



.step run=2764



.step run=2765



.step run=2766



.step run=2767



.step run=2768



.step run=2769



.step run=2770



.step run=2771



.step run=2772



.step run=2773



.step run=2774



.step run=2775



.step run=2776



.step run=2777



.step run=2778



.step run=2779



.step run=2780



.step run=2781



.step run=2782



.step run=2783



.step run=2784



.step run=2785



.step run=2786



.step run=2787



.step run=2788



.step run=2789



.step run=2790



.step run=2791



.step run=2792



.step run=2793



.step run=2794



.step run=2795



.step run=2796



.step run=2797



.step run=2798



.step run=2799



.step run=2800



.step run=2801



.step run=2802



.step run=2803



.step run=2804



.step run=2805



.step run=2806



.step run=2807



.step run=2808



.step run=2809



.step run=2810



.step run=2811



.step run=2812



.step run=2813



.step run=2814



.step run=2815



.step run=2816



.step run=2817



.step run=2818



.step run=2819



.step run=2820



.step run=2821



.step run=2822



.step run=2823



.step run=2824



.step run=2825



.step run=2826



.step run=2827



.step run=2828



.step run=2829



.step run=2830



.step run=2831



.step run=2832



.step run=2833



.step run=2834



.step run=2835



.step run=2836



.step run=2837



.step run=2838



.step run=2839



.step run=2840



.step run=2841



.step run=2842



.step run=2843



.step run=2844



.step run=2845



.step run=2846



.step run=2847



.step run=2848



.step run=2849



.step run=2850



.step run=2851



.step run=2852



.step run=2853



.step run=2854



.step run=2855



.step run=2856



.step run=2857



.step run=2858



.step run=2859



.step run=2860



.step run=2861



.step run=2862



.step run=2863



.step run=2864



.step run=2865



.step run=2866



.step run=2867



.step run=2868



.step run=2869



.step run=2870



.step run=2871



.step run=2872



.step run=2873



.step run=2874



.step run=2875



.step run=2876



.step run=2877



.step run=2878



.step run=2879



.step run=2880



.step run=2881



.step run=2882



.step run=2883



.step run=2884



.step run=2885



.step run=2886



.step run=2887



.step run=2888



.step run=2889



.step run=2890



.step run=2891



.step run=2892



.step run=2893



.step run=2894



.step run=2895



.step run=2896



.step run=2897



.step run=2898



.step run=2899



.step run=2900



.step run=2901



.step run=2902



.step run=2903



.step run=2904



.step run=2905



.step run=2906



.step run=2907



.step run=2908



.step run=2909



.step run=2910



.step run=2911



.step run=2912



.step run=2913



.step run=2914



.step run=2915



.step run=2916



.step run=2917



.step run=2918



.step run=2919



.step run=2920



.step run=2921



.step run=2922



.step run=2923



.step run=2924



.step run=2925



.step run=2926



.step run=2927



.step run=2928



.step run=2929



.step run=2930



.step run=2931



.step run=2932



.step run=2933



.step run=2934



.step run=2935



.step run=2936



.step run=2937



.step run=2938



.step run=2939



.step run=2940



.step run=2941



.step run=2942



.step run=2943



.step run=2944



.step run=2945



.step run=2946



.step run=2947



.step run=2948



.step run=2949



.step run=2950



.step run=2951



.step run=2952



.step run=2953



.step run=2954



.step run=2955



.step run=2956



.step run=2957



.step run=2958



.step run=2959



.step run=2960



.step run=2961



.step run=2962



.step run=2963



.step run=2964



.step run=2965



.step run=2966



.step run=2967



.step run=2968



.step run=2969



.step run=2970



.step run=2971



.step run=2972



.step run=2973



.step run=2974



.step run=2975



.step run=2976



.step run=2977



.step run=2978



.step run=2979



.step run=2980



.step run=2981



.step run=2982



.step run=2983



.step run=2984



.step run=2985



.step run=2986



.step run=2987



.step run=2988



.step run=2989



.step run=2990



.step run=2991



.step run=2992



.step run=2993



.step run=2994



.step run=2995



.step run=2996



.step run=2997



.step run=2998



.step run=2999
tnom = 27
temp = 27
method = modified trap
.step run=3000


Measurement: vout
  step	AVG(vref*(1+r14/(r12*r13/(r12+r13))) + iadj*r14)	FROM	TO
     1	14.94636364	0	1e-09
     2	15.00022771	0	1e-09
     3	14.84450722	0	1e-09
     4	15.16548798	0	1e-09
     5	14.80252142	0	1e-09
     6	14.98225956	0	1e-09
     7	14.89884433	0	1e-09
     8	15.09614579	0	1e-09
     9	14.89120546	0	1e-09
    10	15.01684993	0	1e-09
    11	14.96023971	0	1e-09
    12	15.17772861	0	1e-09
    13	14.91593372	0	1e-09
    14	14.80096431	0	1e-09
    15	15.03279845	0	1e-09
    16	14.94677453	0	1e-09
    17	15.03755786	0	1e-09
    18	15.09034958	0	1e-09
    19	14.980315	0	1e-09
    20	15.00101162	0	1e-09
    21	14.88871591	0	1e-09
    22	14.93243502	0	1e-09
    23	14.98205225	0	1e-09
    24	14.7441928	0	1e-09
    25	15.00925565	0	1e-09
    26	14.93330224	0	1e-09
    27	15.11649015	0	1e-09
    28	14.98739215	0	1e-09
    29	14.97057168	0	1e-09
    30	14.82284533	0	1e-09
    31	14.85904582	0	1e-09
    32	15.00054778	0	1e-09
    33	15.08612901	0	1e-09
    34	15.00624559	0	1e-09
    35	14.9065794	0	1e-09
    36	14.94193711	0	1e-09
    37	14.9751252	0	1e-09
    38	14.70534552	0	1e-09
    39	14.85254209	0	1e-09
    40	14.75528109	0	1e-09
    41	15.08685736	0	1e-09
    42	15.13203881	0	1e-09
    43	14.78598065	0	1e-09
    44	14.94848979	0	1e-09
    45	15.00170186	0	1e-09
    46	14.86269157	0	1e-09
    47	14.91283342	0	1e-09
    48	14.77809308	0	1e-09
    49	14.90157261	0	1e-09
    50	15.13815853	0	1e-09
    51	14.79336233	0	1e-09
    52	14.95322869	0	1e-09
    53	14.90111419	0	1e-09
    54	14.90378634	0	1e-09
    55	15.01182391	0	1e-09
    56	14.87650823	0	1e-09
    57	15.00399928	0	1e-09
    58	14.83995584	0	1e-09
    59	15.16072406	0	1e-09
    60	14.98366031	0	1e-09
    61	15.05598942	0	1e-09
    62	14.88335672	0	1e-09
    63	14.95569848	0	1e-09
    64	15.06695658	0	1e-09
    65	14.95212523	0	1e-09
    66	14.8248903	0	1e-09
    67	14.96393094	0	1e-09
    68	14.81946879	0	1e-09
    69	15.12703979	0	1e-09
    70	14.87306889	0	1e-09
    71	15.20462289	0	1e-09
    72	14.99452677	0	1e-09
    73	14.92230858	0	1e-09
    74	14.90149071	0	1e-09
    75	14.97339746	0	1e-09
    76	14.87256847	0	1e-09
    77	14.93218637	0	1e-09
    78	14.67570607	0	1e-09
    79	14.94779228	0	1e-09
    80	14.61531347	0	1e-09
    81	14.96427151	0	1e-09
    82	14.80670862	0	1e-09
    83	15.2191404	0	1e-09
    84	14.96757567	0	1e-09
    85	14.7487127	0	1e-09
    86	14.81876177	0	1e-09
    87	14.76272463	0	1e-09
    88	14.80985199	0	1e-09
    89	14.84049155	0	1e-09
    90	15.05370888	0	1e-09
    91	15.17164669	0	1e-09
    92	14.8547713	0	1e-09
    93	14.9938144	0	1e-09
    94	14.83759332	0	1e-09
    95	14.74306643	0	1e-09
    96	15.02599109	0	1e-09
    97	14.8730307	0	1e-09
    98	15.03620552	0	1e-09
    99	15.0375462	0	1e-09
   100	14.79893938	0	1e-09
   101	14.86623886	0	1e-09
   102	15.0577136	0	1e-09
   103	14.92601662	0	1e-09
   104	14.87400133	0	1e-09
   105	14.88598212	0	1e-09
   106	14.86243564	0	1e-09
   107	14.86433214	0	1e-09
   108	14.81684676	0	1e-09
   109	14.83258665	0	1e-09
   110	15.03589022	0	1e-09
   111	14.72949687	0	1e-09
   112	15.19458338	0	1e-09
   113	15.01930973	0	1e-09
   114	14.86672672	0	1e-09
   115	15.03650054	0	1e-09
   116	14.95985387	0	1e-09
   117	15.13826987	0	1e-09
   118	14.907475	0	1e-09
   119	15.03121037	0	1e-09
   120	15.100902	0	1e-09
   121	14.94728684	0	1e-09
   122	14.85737628	0	1e-09
   123	15.06423112	0	1e-09
   124	15.09313166	0	1e-09
   125	14.95089798	0	1e-09
   126	15.03691317	0	1e-09
   127	15.00013781	0	1e-09
   128	15.046047	0	1e-09
   129	14.91841751	0	1e-09
   130	14.98113358	0	1e-09
   131	15.01840386	0	1e-09
   132	15.08551186	0	1e-09
   133	15.06122111	0	1e-09
   134	14.96044099	0	1e-09
   135	14.91641751	0	1e-09
   136	14.97686527	0	1e-09
   137	15.04356304	0	1e-09
   138	14.84526569	0	1e-09
   139	14.93504808	0	1e-09
   140	15.01716756	0	1e-09
   141	15.0835783	0	1e-09
   142	14.87337074	0	1e-09
   143	14.96918221	0	1e-09
   144	14.86557558	0	1e-09
   145	15.0273641	0	1e-09
   146	14.83789519	0	1e-09
   147	14.94773773	0	1e-09
   148	15.1251936	0	1e-09
   149	14.86027165	0	1e-09
   150	14.85429051	0	1e-09
   151	15.17026551	0	1e-09
   152	14.88133439	0	1e-09
   153	14.82686434	0	1e-09
   154	14.92351239	0	1e-09
   155	14.88855621	0	1e-09
   156	15.06190559	0	1e-09
   157	14.92735225	0	1e-09
   158	15.30259644	0	1e-09
   159	14.84938165	0	1e-09
   160	15.12991215	0	1e-09
   161	14.9785238	0	1e-09
   162	14.90622599	0	1e-09
   163	15.07871462	0	1e-09
   164	14.86743919	0	1e-09
   165	14.95465117	0	1e-09
   166	14.87214978	0	1e-09
   167	15.00361179	0	1e-09
   168	14.75946946	0	1e-09
   169	14.95897921	0	1e-09
   170	14.83762007	0	1e-09
   171	14.99244638	0	1e-09
   172	15.03178286	0	1e-09
   173	15.02217285	0	1e-09
   174	15.00906539	0	1e-09
   175	15.08030539	0	1e-09
   176	15.11578554	0	1e-09
   177	14.9261241	0	1e-09
   178	14.94789811	0	1e-09
   179	14.75941761	0	1e-09
   180	14.90310786	0	1e-09
   181	14.97006052	0	1e-09
   182	14.81551267	0	1e-09
   183	15.11948407	0	1e-09
   184	14.90169121	0	1e-09
   185	14.84143556	0	1e-09
   186	14.79071893	0	1e-09
   187	15.03434116	0	1e-09
   188	14.90834566	0	1e-09
   189	15.0056058	0	1e-09
   190	14.84184631	0	1e-09
   191	15.00589711	0	1e-09
   192	15.09128003	0	1e-09
   193	15.02874431	0	1e-09
   194	14.99939874	0	1e-09
   195	14.98753239	0	1e-09
   196	14.99373902	0	1e-09
   197	14.74360231	0	1e-09
   198	14.75326264	0	1e-09
   199	14.94596005	0	1e-09
   200	14.91843111	0	1e-09
   201	14.89852532	0	1e-09
   202	14.94057706	0	1e-09
   203	15.03965312	0	1e-09
   204	14.86984704	0	1e-09
   205	14.91190599	0	1e-09
   206	15.01610827	0	1e-09
   207	14.83894609	0	1e-09
   208	14.87411787	0	1e-09
   209	14.87596054	0	1e-09
   210	14.88963817	0	1e-09
   211	15.00447555	0	1e-09
   212	15.07347991	0	1e-09
   213	14.82448297	0	1e-09
   214	14.94215023	0	1e-09
   215	14.92854465	0	1e-09
   216	14.84351125	0	1e-09
   217	15.07653776	0	1e-09
   218	15.05175362	0	1e-09
   219	15.05438782	0	1e-09
   220	14.9841988	0	1e-09
   221	14.96826407	0	1e-09
   222	14.8263868	0	1e-09
   223	14.95986061	0	1e-09
   224	14.99039026	0	1e-09
   225	14.93711982	0	1e-09
   226	14.91316726	0	1e-09
   227	14.96013554	0	1e-09
   228	14.95367434	0	1e-09
   229	14.89784538	0	1e-09
   230	15.04310365	0	1e-09
   231	14.87011694	0	1e-09
   232	14.99734063	0	1e-09
   233	14.88900417	0	1e-09
   234	14.82993343	0	1e-09
   235	14.97070043	0	1e-09
   236	14.93099582	0	1e-09
   237	15.01981335	0	1e-09
   238	14.83532647	0	1e-09
   239	15.00107984	0	1e-09
   240	14.92815035	0	1e-09
   241	14.98796581	0	1e-09
   242	14.98596824	0	1e-09
   243	15.03237993	0	1e-09
   244	15.07467806	0	1e-09
   245	14.9800117	0	1e-09
   246	14.77012777	0	1e-09
   247	15.106278	0	1e-09
   248	14.7945117	0	1e-09
   249	15.05473762	0	1e-09
   250	15.13795985	0	1e-09
   251	15.03242336	0	1e-09
   252	14.74819267	0	1e-09
   253	15.10788719	0	1e-09
   254	14.80912045	0	1e-09
   255	15.03230156	0	1e-09
   256	14.99918839	0	1e-09
   257	15.16912317	0	1e-09
   258	14.99288485	0	1e-09
   259	15.09077896	0	1e-09
   260	14.92671212	0	1e-09
   261	14.72445051	0	1e-09
   262	14.73928677	0	1e-09
   263	14.66642325	0	1e-09
   264	15.0536891	0	1e-09
   265	14.88276137	0	1e-09
   266	14.92204618	0	1e-09
   267	15.04369285	0	1e-09
   268	14.87288614	0	1e-09
   269	15.15850945	0	1e-09
   270	14.9275732	0	1e-09
   271	15.06127554	0	1e-09
   272	14.88961426	0	1e-09
   273	15.1344012	0	1e-09
   274	15.02050042	0	1e-09
   275	14.8675902	0	1e-09
   276	14.97108067	0	1e-09
   277	14.97046707	0	1e-09
   278	14.89454833	0	1e-09
   279	14.69319504	0	1e-09
   280	15.06202797	0	1e-09
   281	15.06799455	0	1e-09
   282	15.13931638	0	1e-09
   283	15.03226658	0	1e-09
   284	14.98447847	0	1e-09
   285	14.97815571	0	1e-09
   286	15.06145098	0	1e-09
   287	14.88502798	0	1e-09
   288	14.98914744	0	1e-09
   289	14.85086214	0	1e-09
   290	14.83934603	0	1e-09
   291	15.0111165	0	1e-09
   292	14.75969989	0	1e-09
   293	15.21818438	0	1e-09
   294	14.73056367	0	1e-09
   295	15.08057349	0	1e-09
   296	14.69740518	0	1e-09
   297	14.66078886	0	1e-09
   298	14.7239169	0	1e-09
   299	15.04357314	0	1e-09
   300	14.79786339	0	1e-09
   301	15.01300654	0	1e-09
   302	14.75329614	0	1e-09
   303	15.09327527	0	1e-09
   304	14.78839769	0	1e-09
   305	14.94025686	0	1e-09
   306	15.0513564	0	1e-09
   307	15.09050442	0	1e-09
   308	15.04145486	0	1e-09
   309	15.15649384	0	1e-09
   310	15.08094024	0	1e-09
   311	14.95280682	0	1e-09
   312	14.95233318	0	1e-09
   313	15.1723691	0	1e-09
   314	14.87886643	0	1e-09
   315	15.17691858	0	1e-09
   316	14.95879919	0	1e-09
   317	14.83511035	0	1e-09
   318	15.02117218	0	1e-09
   319	15.04469112	0	1e-09
   320	15.18528963	0	1e-09
   321	14.60858803	0	1e-09
   322	15.07532707	0	1e-09
   323	14.90896282	0	1e-09
   324	14.93025979	0	1e-09
   325	14.93999896	0	1e-09
   326	14.79246006	0	1e-09
   327	15.08151114	0	1e-09
   328	15.22254083	0	1e-09
   329	14.91977884	0	1e-09
   330	14.80794131	0	1e-09
   331	14.95836253	0	1e-09
   332	14.97230313	0	1e-09
   333	14.98790826	0	1e-09
   334	14.86238274	0	1e-09
   335	14.8840675	0	1e-09
   336	15.14473983	0	1e-09
   337	14.85817329	0	1e-09
   338	14.88529259	0	1e-09
   339	14.87399046	0	1e-09
   340	15.00732821	0	1e-09
   341	15.19475165	0	1e-09
   342	15.07535638	0	1e-09
   343	14.77055727	0	1e-09
   344	15.19721915	0	1e-09
   345	14.88474091	0	1e-09
   346	14.981415	0	1e-09
   347	15.15730792	0	1e-09
   348	14.76596266	0	1e-09
   349	14.93052733	0	1e-09
   350	14.83694705	0	1e-09
   351	15.19150345	0	1e-09
   352	14.89526477	0	1e-09
   353	14.72521529	0	1e-09
   354	14.86493047	0	1e-09
   355	15.07636962	0	1e-09
   356	15.14230122	0	1e-09
   357	14.88819668	0	1e-09
   358	14.70200381	0	1e-09
   359	15.02982373	0	1e-09
   360	15.04622062	0	1e-09
   361	15.31192795	0	1e-09
   362	15.0441331	0	1e-09
   363	15.13411747	0	1e-09
   364	14.8581104	0	1e-09
   365	14.93028374	0	1e-09
   366	14.93895069	0	1e-09
   367	14.90992213	0	1e-09
   368	14.89338278	0	1e-09
   369	14.89120576	0	1e-09
   370	14.99423926	0	1e-09
   371	15.06592866	0	1e-09
   372	15.07366574	0	1e-09
   373	14.98342696	0	1e-09
   374	15.08239341	0	1e-09
   375	14.76491405	0	1e-09
   376	14.87783533	0	1e-09
   377	14.82747886	0	1e-09
   378	14.89861793	0	1e-09
   379	15.02186193	0	1e-09
   380	15.08722571	0	1e-09
   381	14.82543914	0	1e-09
   382	14.7900642	0	1e-09
   383	14.73258257	0	1e-09
   384	14.90441452	0	1e-09
   385	14.92437319	0	1e-09
   386	15.03547043	0	1e-09
   387	15.06477445	0	1e-09
   388	14.82148307	0	1e-09
   389	15.02009819	0	1e-09
   390	14.8523917	0	1e-09
   391	14.90568367	0	1e-09
   392	14.97758804	0	1e-09
   393	14.98561579	0	1e-09
   394	14.98709768	0	1e-09
   395	15.08336914	0	1e-09
   396	15.02565492	0	1e-09
   397	14.86276171	0	1e-09
   398	15.0285936	0	1e-09
   399	14.83352756	0	1e-09
   400	14.97206514	0	1e-09
   401	14.92798598	0	1e-09
   402	15.05842058	0	1e-09
   403	14.85069369	0	1e-09
   404	15.1822722	0	1e-09
   405	14.98849584	0	1e-09
   406	14.73285148	0	1e-09
   407	14.71198631	0	1e-09
   408	15.02424479	0	1e-09
   409	15.06563109	0	1e-09
   410	14.98656003	0	1e-09
   411	15.0278225	0	1e-09
   412	14.80703658	0	1e-09
   413	14.95308811	0	1e-09
   414	15.00961094	0	1e-09
   415	14.82472048	0	1e-09
   416	15.03702281	0	1e-09
   417	14.85965208	0	1e-09
   418	14.98335186	0	1e-09
   419	15.23119486	0	1e-09
   420	14.83705934	0	1e-09
   421	14.85725965	0	1e-09
   422	14.96711959	0	1e-09
   423	15.04526086	0	1e-09
   424	14.84016225	0	1e-09
   425	15.05721854	0	1e-09
   426	15.01296725	0	1e-09
   427	15.00860046	0	1e-09
   428	14.80904626	0	1e-09
   429	14.93631726	0	1e-09
   430	15.06162697	0	1e-09
   431	15.10889688	0	1e-09
   432	14.86283274	0	1e-09
   433	15.04041188	0	1e-09
   434	15.14996453	0	1e-09
   435	14.93759618	0	1e-09
   436	15.04882413	0	1e-09
   437	14.95224819	0	1e-09
   438	14.97722852	0	1e-09
   439	15.12066339	0	1e-09
   440	15.08940535	0	1e-09
   441	15.08259051	0	1e-09
   442	14.90922355	0	1e-09
   443	14.75624033	0	1e-09
   444	15.08272573	0	1e-09
   445	15.08509523	0	1e-09
   446	14.97321185	0	1e-09
   447	15.08262768	0	1e-09
   448	15.20803496	0	1e-09
   449	14.92414574	0	1e-09
   450	15.04957251	0	1e-09
   451	14.88631005	0	1e-09
   452	14.64229898	0	1e-09
   453	14.9371109	0	1e-09
   454	14.99424339	0	1e-09
   455	14.83122815	0	1e-09
   456	14.81670928	0	1e-09
   457	15.10881709	0	1e-09
   458	14.93193408	0	1e-09
   459	14.89096694	0	1e-09
   460	15.03257102	0	1e-09
   461	14.92241169	0	1e-09
   462	14.70037435	0	1e-09
   463	15.00772317	0	1e-09
   464	15.10338827	0	1e-09
   465	14.98007382	0	1e-09
   466	14.7618119	0	1e-09
   467	15.08323877	0	1e-09
   468	15.09831578	0	1e-09
   469	14.84625503	0	1e-09
   470	14.71740624	0	1e-09
   471	15.01525081	0	1e-09
   472	15.14497588	0	1e-09
   473	15.00289368	0	1e-09
   474	14.79698496	0	1e-09
   475	14.88432977	0	1e-09
   476	15.06310142	0	1e-09
   477	14.95816353	0	1e-09
   478	15.0717	0	1e-09
   479	15.1139246	0	1e-09
   480	14.83605712	0	1e-09
   481	14.9943776	0	1e-09
   482	14.99380043	0	1e-09
   483	14.83488724	0	1e-09
   484	14.73816124	0	1e-09
   485	15.07578074	0	1e-09
   486	15.22933568	0	1e-09
   487	15.03842123	0	1e-09
   488	14.90854188	0	1e-09
   489	14.93286368	0	1e-09
   490	14.70849709	0	1e-09
   491	14.88049346	0	1e-09
   492	14.94299258	0	1e-09
   493	15.06472201	0	1e-09
   494	14.99838585	0	1e-09
   495	14.9952291	0	1e-09
   496	14.94016684	0	1e-09
   497	14.97193813	0	1e-09
   498	15.03187329	0	1e-09
   499	14.84380844	0	1e-09
   500	14.80885812	0	1e-09
   501	15.14364995	0	1e-09
   502	14.86848828	0	1e-09
   503	14.76765564	0	1e-09
   504	14.98226803	0	1e-09
   505	14.73131091	0	1e-09
   506	14.77223358	0	1e-09
   507	14.91083017	0	1e-09
   508	14.9244745	0	1e-09
   509	14.98494116	0	1e-09
   510	14.95235836	0	1e-09
   511	15.05036797	0	1e-09
   512	15.02534101	0	1e-09
   513	14.91200314	0	1e-09
   514	15.01699403	0	1e-09
   515	14.94868413	0	1e-09
   516	14.92353203	0	1e-09
   517	15.22980174	0	1e-09
   518	15.09684391	0	1e-09
   519	15.09900371	0	1e-09
   520	14.80925733	0	1e-09
   521	14.80995613	0	1e-09
   522	14.80516846	0	1e-09
   523	15.02605544	0	1e-09
   524	14.80769349	0	1e-09
   525	14.88922181	0	1e-09
   526	14.99899678	0	1e-09
   527	14.71769875	0	1e-09
   528	14.85460889	0	1e-09
   529	14.95859195	0	1e-09
   530	15.04180655	0	1e-09
   531	14.86497736	0	1e-09
   532	15.04855166	0	1e-09
   533	15.02919894	0	1e-09
   534	15.07474803	0	1e-09
   535	14.96392495	0	1e-09
   536	14.74017854	0	1e-09
   537	15.01128353	0	1e-09
   538	14.84333157	0	1e-09
   539	15.04375136	0	1e-09
   540	14.84934397	0	1e-09
   541	15.10829101	0	1e-09
   542	14.93653878	0	1e-09
   543	15.05337111	0	1e-09
   544	14.96525721	0	1e-09
   545	15.07705224	0	1e-09
   546	14.8687077	0	1e-09
   547	14.98079821	0	1e-09
   548	15.2815978	0	1e-09
   549	14.96727356	0	1e-09
   550	15.06162848	0	1e-09
   551	14.95241564	0	1e-09
   552	15.02206914	0	1e-09
   553	15.0808421	0	1e-09
   554	14.92854562	0	1e-09
   555	15.14916345	0	1e-09
   556	15.02141883	0	1e-09
   557	14.89989988	0	1e-09
   558	14.96393464	0	1e-09
   559	15.03721054	0	1e-09
   560	15.00985449	0	1e-09
   561	15.06358682	0	1e-09
   562	14.85205417	0	1e-09
   563	14.75106767	0	1e-09
   564	14.93987546	0	1e-09
   565	14.97088004	0	1e-09
   566	14.95259305	0	1e-09
   567	14.92112133	0	1e-09
   568	15.26379719	0	1e-09
   569	15.03353163	0	1e-09
   570	14.9312284	0	1e-09
   571	14.84314156	0	1e-09
   572	14.92623131	0	1e-09
   573	14.99709372	0	1e-09
   574	14.85405515	0	1e-09
   575	14.65685193	0	1e-09
   576	15.24168937	0	1e-09
   577	14.98679289	0	1e-09
   578	14.91249477	0	1e-09
   579	15.12456992	0	1e-09
   580	14.93283593	0	1e-09
   581	14.98402749	0	1e-09
   582	14.96452898	0	1e-09
   583	15.08217684	0	1e-09
   584	14.94377263	0	1e-09
   585	15.05453261	0	1e-09
   586	14.85743973	0	1e-09
   587	15.26385508	0	1e-09
   588	14.850854	0	1e-09
   589	15.0896314	0	1e-09
   590	14.93114605	0	1e-09
   591	14.93823035	0	1e-09
   592	14.95882352	0	1e-09
   593	15.15870481	0	1e-09
   594	15.0447501	0	1e-09
   595	14.92254613	0	1e-09
   596	15.21664676	0	1e-09
   597	14.81350323	0	1e-09
   598	15.01678238	0	1e-09
   599	14.81979202	0	1e-09
   600	14.92711576	0	1e-09
   601	14.91709095	0	1e-09
   602	15.02424487	0	1e-09
   603	14.8699419	0	1e-09
   604	15.08309755	0	1e-09
   605	14.72404394	0	1e-09
   606	14.86304244	0	1e-09
   607	14.87921178	0	1e-09
   608	14.88754076	0	1e-09
   609	14.9708085	0	1e-09
   610	14.99679116	0	1e-09
   611	14.80341824	0	1e-09
   612	15.27267425	0	1e-09
   613	15.07244566	0	1e-09
   614	14.94677663	0	1e-09
   615	14.94122745	0	1e-09
   616	14.86091969	0	1e-09
   617	14.72771774	0	1e-09
   618	15.03978517	0	1e-09
   619	15.15608405	0	1e-09
   620	14.82794133	0	1e-09
   621	14.89332443	0	1e-09
   622	15.02710435	0	1e-09
   623	14.93042827	0	1e-09
   624	15.06021023	0	1e-09
   625	14.60644362	0	1e-09
   626	14.85514522	0	1e-09
   627	15.09276328	0	1e-09
   628	14.86180229	0	1e-09
   629	15.0327261	0	1e-09
   630	15.13053397	0	1e-09
   631	14.9726372	0	1e-09
   632	14.9590554	0	1e-09
   633	14.72454612	0	1e-09
   634	14.9106326	0	1e-09
   635	14.95643482	0	1e-09
   636	14.83647711	0	1e-09
   637	15.08264931	0	1e-09
   638	15.11976103	0	1e-09
   639	14.90861675	0	1e-09
   640	14.95727103	0	1e-09
   641	15.04871801	0	1e-09
   642	14.99001919	0	1e-09
   643	15.05521834	0	1e-09
   644	14.81913598	0	1e-09
   645	14.527309	0	1e-09
   646	15.08939321	0	1e-09
   647	14.86137966	0	1e-09
   648	14.82457649	0	1e-09
   649	14.94500653	0	1e-09
   650	14.88896413	0	1e-09
   651	14.98000059	0	1e-09
   652	14.91161832	0	1e-09
   653	15.11344185	0	1e-09
   654	15.01294478	0	1e-09
   655	14.99093879	0	1e-09
   656	14.97912735	0	1e-09
   657	14.72240071	0	1e-09
   658	15.234574	0	1e-09
   659	15.06223489	0	1e-09
   660	14.88700172	0	1e-09
   661	14.93416873	0	1e-09
   662	14.96604657	0	1e-09
   663	15.16226458	0	1e-09
   664	14.94186972	0	1e-09
   665	15.05837557	0	1e-09
   666	15.02362626	0	1e-09
   667	14.8286643	0	1e-09
   668	14.92679996	0	1e-09
   669	15.17001672	0	1e-09
   670	14.8067489	0	1e-09
   671	14.94189883	0	1e-09
   672	14.85913191	0	1e-09
   673	14.92678179	0	1e-09
   674	14.68940581	0	1e-09
   675	14.94625623	0	1e-09
   676	14.94339532	0	1e-09
   677	14.81447055	0	1e-09
   678	14.94793719	0	1e-09
   679	14.81603547	0	1e-09
   680	14.73770794	0	1e-09
   681	14.96027544	0	1e-09
   682	15.19284875	0	1e-09
   683	14.91403208	0	1e-09
   684	14.74537419	0	1e-09
   685	14.92816726	0	1e-09
   686	14.90150523	0	1e-09
   687	14.8546771	0	1e-09
   688	15.1460071	0	1e-09
   689	14.86648841	0	1e-09
   690	15.02035195	0	1e-09
   691	15.00395001	0	1e-09
   692	14.71650409	0	1e-09
   693	14.84863652	0	1e-09
   694	14.99515358	0	1e-09
   695	14.88257973	0	1e-09
   696	14.90990904	0	1e-09
   697	14.74779032	0	1e-09
   698	14.9267307	0	1e-09
   699	14.84537185	0	1e-09
   700	14.94739664	0	1e-09
   701	15.07877279	0	1e-09
   702	14.9801651	0	1e-09
   703	14.9579119	0	1e-09
   704	14.77388475	0	1e-09
   705	14.7132847	0	1e-09
   706	14.85897922	0	1e-09
   707	14.8072764	0	1e-09
   708	15.10839061	0	1e-09
   709	14.86768252	0	1e-09
   710	15.05044666	0	1e-09
   711	15.04005373	0	1e-09
   712	14.92007718	0	1e-09
   713	14.89030908	0	1e-09
   714	14.88823947	0	1e-09
   715	14.96816241	0	1e-09
   716	14.97509122	0	1e-09
   717	14.94160708	0	1e-09
   718	14.89312243	0	1e-09
   719	14.84791224	0	1e-09
   720	14.96885566	0	1e-09
   721	15.01951735	0	1e-09
   722	15.12121059	0	1e-09
   723	15.16622887	0	1e-09
   724	15.07041317	0	1e-09
   725	14.89901024	0	1e-09
   726	15.0197538	0	1e-09
   727	14.70030889	0	1e-09
   728	14.84114514	0	1e-09
   729	15.15164419	0	1e-09
   730	15.059134	0	1e-09
   731	14.91045811	0	1e-09
   732	14.91658208	0	1e-09
   733	14.89609534	0	1e-09
   734	15.19358364	0	1e-09
   735	15.05088034	0	1e-09
   736	15.06091982	0	1e-09
   737	14.94198434	0	1e-09
   738	15.18622358	0	1e-09
   739	14.77778684	0	1e-09
   740	14.99473829	0	1e-09
   741	14.89504378	0	1e-09
   742	14.92508511	0	1e-09
   743	14.98479278	0	1e-09
   744	14.9631479	0	1e-09
   745	14.70180594	0	1e-09
   746	14.96488576	0	1e-09
   747	14.79116665	0	1e-09
   748	15.03337274	0	1e-09
   749	14.85522755	0	1e-09
   750	15.03984365	0	1e-09
   751	14.72609151	0	1e-09
   752	14.81147682	0	1e-09
   753	15.07076765	0	1e-09
   754	14.91973999	0	1e-09
   755	14.96974707	0	1e-09
   756	15.08786875	0	1e-09
   757	14.89734112	0	1e-09
   758	15.05796724	0	1e-09
   759	14.89254119	0	1e-09
   760	15.08776719	0	1e-09
   761	15.08503504	0	1e-09
   762	15.09260132	0	1e-09
   763	15.02494657	0	1e-09
   764	14.88384186	0	1e-09
   765	14.82355325	0	1e-09
   766	14.96114783	0	1e-09
   767	14.86322587	0	1e-09
   768	15.12457898	0	1e-09
   769	14.97189751	0	1e-09
   770	15.0745408	0	1e-09
   771	14.83186168	0	1e-09
   772	14.98109887	0	1e-09
   773	14.96513899	0	1e-09
   774	15.07093092	0	1e-09
   775	14.86376735	0	1e-09
   776	14.86682298	0	1e-09
   777	14.92038398	0	1e-09
   778	15.0342654	0	1e-09
   779	14.87562686	0	1e-09
   780	14.94196243	0	1e-09
   781	14.72550134	0	1e-09
   782	14.78493128	0	1e-09
   783	14.93634545	0	1e-09
   784	15.13475833	0	1e-09
   785	14.80497457	0	1e-09
   786	15.05939672	0	1e-09
   787	14.89450777	0	1e-09
   788	15.00290801	0	1e-09
   789	14.96541296	0	1e-09
   790	14.89880647	0	1e-09
   791	14.92732231	0	1e-09
   792	15.092525	0	1e-09
   793	14.88699557	0	1e-09
   794	15.02584055	0	1e-09
   795	14.74550984	0	1e-09
   796	14.73334626	0	1e-09
   797	15.06821075	0	1e-09
   798	14.92665498	0	1e-09
   799	14.76003253	0	1e-09
   800	14.88653588	0	1e-09
   801	15.06479149	0	1e-09
   802	14.87992239	0	1e-09
   803	15.07257857	0	1e-09
   804	14.91827451	0	1e-09
   805	14.97883131	0	1e-09
   806	14.87249855	0	1e-09
   807	14.94637416	0	1e-09
   808	14.7183943	0	1e-09
   809	15.00301552	0	1e-09
   810	14.96551994	0	1e-09
   811	15.29580202	0	1e-09
   812	14.71446432	0	1e-09
   813	14.96869775	0	1e-09
   814	14.81303196	0	1e-09
   815	14.77598139	0	1e-09
   816	15.08922769	0	1e-09
   817	14.99130293	0	1e-09
   818	14.66963786	0	1e-09
   819	14.96301215	0	1e-09
   820	14.99868117	0	1e-09
   821	14.99757501	0	1e-09
   822	14.98068342	0	1e-09
   823	14.8287184	0	1e-09
   824	14.80447013	0	1e-09
   825	15.14258897	0	1e-09
   826	15.08530268	0	1e-09
   827	15.09971593	0	1e-09
   828	14.85965772	0	1e-09
   829	14.80633468	0	1e-09
   830	15.1122781	0	1e-09
   831	15.03134819	0	1e-09
   832	15.06167363	0	1e-09
   833	14.96552127	0	1e-09
   834	14.91864253	0	1e-09
   835	14.82990079	0	1e-09
   836	15.03749049	0	1e-09
   837	14.94331459	0	1e-09
   838	14.82006911	0	1e-09
   839	15.12951591	0	1e-09
   840	15.09019453	0	1e-09
   841	14.90420322	0	1e-09
   842	14.95636652	0	1e-09
   843	14.97588751	0	1e-09
   844	14.99658752	0	1e-09
   845	15.0613759	0	1e-09
   846	14.95573735	0	1e-09
   847	14.78466512	0	1e-09
   848	15.01568352	0	1e-09
   849	15.17260584	0	1e-09
   850	14.86883976	0	1e-09
   851	15.00425186	0	1e-09
   852	14.8934187	0	1e-09
   853	14.89405056	0	1e-09
   854	14.95343897	0	1e-09
   855	14.96058706	0	1e-09
   856	14.98544737	0	1e-09
   857	14.94052499	0	1e-09
   858	14.89567428	0	1e-09
   859	14.88339748	0	1e-09
   860	15.11688185	0	1e-09
   861	14.84087407	0	1e-09
   862	14.91182854	0	1e-09
   863	15.09937442	0	1e-09
   864	15.05132444	0	1e-09
   865	14.78718606	0	1e-09
   866	15.06202618	0	1e-09
   867	15.10925243	0	1e-09
   868	14.88715072	0	1e-09
   869	14.93022667	0	1e-09
   870	14.8996063	0	1e-09
   871	15.02809718	0	1e-09
   872	15.03077105	0	1e-09
   873	14.9528993	0	1e-09
   874	14.82351546	0	1e-09
   875	14.63524797	0	1e-09
   876	14.8102991	0	1e-09
   877	14.91772447	0	1e-09
   878	15.02662053	0	1e-09
   879	14.69791621	0	1e-09
   880	14.84067065	0	1e-09
   881	14.8930571	0	1e-09
   882	14.84192291	0	1e-09
   883	15.08028725	0	1e-09
   884	15.10163241	0	1e-09
   885	15.03442982	0	1e-09
   886	15.09235621	0	1e-09
   887	14.97796563	0	1e-09
   888	14.87695583	0	1e-09
   889	14.98862608	0	1e-09
   890	14.9206894	0	1e-09
   891	14.98228168	0	1e-09
   892	15.14153626	0	1e-09
   893	15.0892131	0	1e-09
   894	14.97803533	0	1e-09
   895	15.08038133	0	1e-09
   896	14.99423179	0	1e-09
   897	15.15769791	0	1e-09
   898	14.83227834	0	1e-09
   899	15.141849	0	1e-09
   900	15.12640051	0	1e-09
   901	14.96009515	0	1e-09
   902	15.16158229	0	1e-09
   903	14.79870069	0	1e-09
   904	15.09192065	0	1e-09
   905	14.86050024	0	1e-09
   906	14.88340078	0	1e-09
   907	15.16706907	0	1e-09
   908	14.81627408	0	1e-09
   909	14.95282215	0	1e-09
   910	14.97769259	0	1e-09
   911	14.67945792	0	1e-09
   912	15.10613885	0	1e-09
   913	14.95520259	0	1e-09
   914	14.97202743	0	1e-09
   915	15.01953438	0	1e-09
   916	14.88815701	0	1e-09
   917	14.8047825	0	1e-09
   918	14.9265106	0	1e-09
   919	14.91714654	0	1e-09
   920	14.95278221	0	1e-09
   921	14.98615939	0	1e-09
   922	14.97893683	0	1e-09
   923	15.10091962	0	1e-09
   924	14.87805417	0	1e-09
   925	14.86165508	0	1e-09
   926	15.09666118	0	1e-09
   927	14.92869637	0	1e-09
   928	14.89070285	0	1e-09
   929	14.99593608	0	1e-09
   930	15.01744127	0	1e-09
   931	14.99426658	0	1e-09
   932	15.08182909	0	1e-09
   933	14.90481502	0	1e-09
   934	14.92093732	0	1e-09
   935	14.8611493	0	1e-09
   936	14.78039375	0	1e-09
   937	14.9462436	0	1e-09
   938	14.90204627	0	1e-09
   939	14.86010183	0	1e-09
   940	14.85052792	0	1e-09
   941	15.07238873	0	1e-09
   942	15.07544156	0	1e-09
   943	14.86686635	0	1e-09
   944	14.87065638	0	1e-09
   945	14.84181419	0	1e-09
   946	14.97988874	0	1e-09
   947	14.74243008	0	1e-09
   948	14.92444829	0	1e-09
   949	14.98612526	0	1e-09
   950	15.09095405	0	1e-09
   951	15.04906275	0	1e-09
   952	14.98459586	0	1e-09
   953	15.20074512	0	1e-09
   954	14.87786855	0	1e-09
   955	14.93834435	0	1e-09
   956	14.91589421	0	1e-09
   957	15.35806576	0	1e-09
   958	14.93450657	0	1e-09
   959	15.08672526	0	1e-09
   960	14.87369601	0	1e-09
   961	14.81706153	0	1e-09
   962	15.12243945	0	1e-09
   963	14.83711651	0	1e-09
   964	14.91823694	0	1e-09
   965	14.86284203	0	1e-09
   966	15.03257458	0	1e-09
   967	15.00214541	0	1e-09
   968	14.86255077	0	1e-09
   969	14.95427403	0	1e-09
   970	15.06335603	0	1e-09
   971	15.04329388	0	1e-09
   972	14.83350541	0	1e-09
   973	14.98947756	0	1e-09
   974	15.04037362	0	1e-09
   975	15.18631363	0	1e-09
   976	15.15224509	0	1e-09
   977	14.84409094	0	1e-09
   978	15.22906571	0	1e-09
   979	14.81064978	0	1e-09
   980	14.8576059	0	1e-09
   981	15.06897977	0	1e-09
   982	15.13019228	0	1e-09
   983	15.08135947	0	1e-09
   984	15.00162398	0	1e-09
   985	14.78284999	0	1e-09
[...]
  2261	14.86818575	0	1e-09
  2262	15.25846058	0	1e-09
  2263	14.94773619	0	1e-09
  2264	15.05545226	0	1e-09
  2265	15.14866485	0	1e-09
  2266	14.99285445	0	1e-09
  2267	14.94657573	0	1e-09
  2268	15.12442095	0	1e-09
  2269	15.03889736	0	1e-09
  2270	14.67344886	0	1e-09
  2271	14.81513547	0	1e-09
  2272	14.92169759	0	1e-09
  2273	15.05970072	0	1e-09
  2274	14.90547712	0	1e-09
  2275	15.14476031	0	1e-09
  2276	14.94970609	0	1e-09
  2277	15.00326726	0	1e-09
  2278	14.84053966	0	1e-09
  2279	14.87383474	0	1e-09
  2280	14.92029364	0	1e-09
  2281	15.16205022	0	1e-09
  2282	14.9306214	0	1e-09
  2283	14.83967046	0	1e-09
  2284	14.7855508	0	1e-09
  2285	15.08915294	0	1e-09
  2286	15.0653502	0	1e-09
  2287	14.79156985	0	1e-09
  2288	15.07056107	0	1e-09
  2289	15.19361812	0	1e-09
  2290	14.99798519	0	1e-09
  2291	14.96451538	0	1e-09
  2292	15.08235572	0	1e-09
  2293	14.9984019	0	1e-09
  2294	14.5900167	0	1e-09
  2295	14.93604284	0	1e-09
  2296	15.01412778	0	1e-09
  2297	15.03965229	0	1e-09
  2298	14.98696579	0	1e-09
  2299	14.83049489	0	1e-09
  2300	15.12634793	0	1e-09
  2301	14.89510141	0	1e-09
  2302	15.025662	0	1e-09
  2303	15.15107864	0	1e-09
  2304	14.86027729	0	1e-09
  2305	14.98285762	0	1e-09
  2306	14.83222433	0	1e-09
  2307	14.79101446	0	1e-09
  2308	14.97092248	0	1e-09
  2309	15.0463296	0	1e-09
  2310	15.22656482	0	1e-09
  2311	14.88195789	0	1e-09
  2312	15.09754618	0	1e-09
  2313	14.89545856	0	1e-09
  2314	14.93197177	0	1e-09
  2315	15.12603789	0	1e-09
  2316	15.01369069	0	1e-09
  2317	15.11072183	0	1e-09
  2318	15.0039574	0	1e-09
  2319	14.79640654	0	1e-09
  2320	14.81846519	0	1e-09
  2321	15.13208652	0	1e-09
  2322	14.86209714	0	1e-09
  2323	14.80202181	0	1e-09
  2324	14.87409743	0	1e-09
  2325	14.91744639	0	1e-09
  2326	14.79514881	0	1e-09
  2327	14.835718	0	1e-09
  2328	14.8968592	0	1e-09
  2329	15.16307862	0	1e-09
  2330	14.79016513	0	1e-09
  2331	14.96674584	0	1e-09
  2332	14.79196425	0	1e-09
  2333	14.87371934	0	1e-09
  2334	14.92597454	0	1e-09
  2335	14.99354294	0	1e-09
  2336	15.01612983	0	1e-09
  2337	15.09534869	0	1e-09
  2338	14.96323827	0	1e-09
  2339	15.02350609	0	1e-09
  2340	15.09767112	0	1e-09
  2341	15.11668574	0	1e-09
  2342	15.04525368	0	1e-09
  2343	14.93347747	0	1e-09
  2344	14.78180513	0	1e-09
  2345	15.09251527	0	1e-09
  2346	14.97912393	0	1e-09
  2347	14.85274198	0	1e-09
  2348	15.10955475	0	1e-09
  2349	14.91052478	0	1e-09
  2350	15.00160647	0	1e-09
  2351	15.13718723	0	1e-09
  2352	14.92812131	0	1e-09
  2353	14.61838842	0	1e-09
  2354	14.71590237	0	1e-09
  2355	15.0454009	0	1e-09
  2356	15.02403798	0	1e-09
  2357	14.94859959	0	1e-09
  2358	15.08582919	0	1e-09
  2359	15.02691247	0	1e-09
  2360	15.02278055	0	1e-09
  2361	14.69636588	0	1e-09
  2362	15.03746078	0	1e-09
  2363	15.04893276	0	1e-09
  2364	14.98348872	0	1e-09
  2365	14.87430004	0	1e-09
  2366	14.92199926	0	1e-09
  2367	14.96714212	0	1e-09
  2368	14.99047092	0	1e-09
  2369	15.07800228	0	1e-09
  2370	14.811309	0	1e-09
  2371	14.93521698	0	1e-09
  2372	14.90594013	0	1e-09
  2373	14.96381462	0	1e-09
  2374	14.81404014	0	1e-09
  2375	14.96242942	0	1e-09
  2376	14.81942222	0	1e-09
  2377	14.98482218	0	1e-09
  2378	14.9491473	0	1e-09
  2379	15.03021667	0	1e-09
  2380	14.89236857	0	1e-09
  2381	15.04807053	0	1e-09
  2382	15.14368575	0	1e-09
  2383	14.97048512	0	1e-09
  2384	14.90736434	0	1e-09
  2385	14.83255762	0	1e-09
  2386	14.97090151	0	1e-09
  2387	14.77470127	0	1e-09
  2388	14.80626593	0	1e-09
  2389	14.87068872	0	1e-09
  2390	14.85697524	0	1e-09
  2391	14.77218549	0	1e-09
  2392	14.78257919	0	1e-09
  2393	14.70114753	0	1e-09
  2394	15.00549094	0	1e-09
  2395	14.90519513	0	1e-09
  2396	14.94279416	0	1e-09
  2397	14.99988576	0	1e-09
  2398	14.89092564	0	1e-09
  2399	14.92553354	0	1e-09
  2400	14.88493894	0	1e-09
  2401	15.03726071	0	1e-09
  2402	14.79906372	0	1e-09
  2403	14.87382718	0	1e-09
  2404	15.02100996	0	1e-09
  2405	14.84745628	0	1e-09
  2406	14.77717213	0	1e-09
  2407	15.06970149	0	1e-09
  2408	14.96609911	0	1e-09
  2409	15.10924743	0	1e-09
  2410	15.04437197	0	1e-09
  2411	14.93754253	0	1e-09
  2412	14.75348262	0	1e-09
  2413	14.85269199	0	1e-09
  2414	14.69388136	0	1e-09
  2415	14.92168786	0	1e-09
  2416	14.70405073	0	1e-09
  2417	14.92880842	0	1e-09
  2418	15.06080198	0	1e-09
  2419	15.1413554	0	1e-09
  2420	14.93895373	0	1e-09
  2421	14.95538316	0	1e-09
  2422	15.18906722	0	1e-09
  2423	14.86781073	0	1e-09
  2424	15.1453475	0	1e-09
  2425	15.20546991	0	1e-09
  2426	14.84840532	0	1e-09
  2427	14.81804243	0	1e-09
  2428	14.86943376	0	1e-09
  2429	15.03094172	0	1e-09
  2430	14.9421128	0	1e-09
  2431	14.93616294	0	1e-09
  2432	14.94226722	0	1e-09
  2433	14.82123337	0	1e-09
  2434	14.99090146	0	1e-09
  2435	15.07479455	0	1e-09
  2436	14.8947875	0	1e-09
  2437	14.92901474	0	1e-09
  2438	15.00193664	0	1e-09
  2439	14.89478385	0	1e-09
  2440	14.88086603	0	1e-09
  2441	14.95044285	0	1e-09
  2442	15.03802556	0	1e-09
  2443	15.06571074	0	1e-09
  2444	14.91959974	0	1e-09
  2445	14.87651179	0	1e-09
  2446	15.04574939	0	1e-09
  2447	14.80831877	0	1e-09
  2448	14.95014445	0	1e-09
  2449	14.93298141	0	1e-09
  2450	14.97420442	0	1e-09
  2451	14.87947626	0	1e-09
  2452	14.85499221	0	1e-09
  2453	14.93707155	0	1e-09
  2454	15.03710074	0	1e-09
  2455	14.91337147	0	1e-09
  2456	15.04903835	0	1e-09
  2457	15.19819502	0	1e-09
  2458	15.02739861	0	1e-09
  2459	14.90941952	0	1e-09
  2460	14.97598238	0	1e-09
  2461	14.82442817	0	1e-09
  2462	15.04405746	0	1e-09
  2463	14.77832227	0	1e-09
  2464	15.03971773	0	1e-09
  2465	14.58339367	0	1e-09
  2466	15.00738785	0	1e-09
  2467	15.11435452	0	1e-09
  2468	15.00335752	0	1e-09
  2469	15.08355393	0	1e-09
  2470	14.82209374	0	1e-09
  2471	14.85445936	0	1e-09
  2472	15.10077094	0	1e-09
  2473	15.41377478	0	1e-09
  2474	15.14995058	0	1e-09
  2475	15.06275536	0	1e-09
  2476	15.21349623	0	1e-09
  2477	14.92298379	0	1e-09
  2478	14.91943961	0	1e-09
  2479	14.84425258	0	1e-09
  2480	14.85033439	0	1e-09
  2481	14.82122588	0	1e-09
  2482	15.02773914	0	1e-09
  2483	14.94154059	0	1e-09
  2484	14.93325956	0	1e-09
  2485	14.95879932	0	1e-09
  2486	14.92473739	0	1e-09
  2487	14.75627757	0	1e-09
  2488	14.97846725	0	1e-09
  2489	14.93160162	0	1e-09
  2490	14.82718496	0	1e-09
  2491	15.06436637	0	1e-09
  2492	15.06931492	0	1e-09
  2493	15.10049942	0	1e-09
  2494	15.07156451	0	1e-09
  2495	14.95526932	0	1e-09
  2496	14.85928016	0	1e-09
  2497	14.97928753	0	1e-09
  2498	14.86028346	0	1e-09
  2499	15.14193116	0	1e-09
  2500	14.89004583	0	1e-09
  2501	14.98591021	0	1e-09
  2502	14.92100768	0	1e-09
  2503	15.08349672	0	1e-09
  2504	14.97334823	0	1e-09
  2505	14.80829368	0	1e-09
  2506	14.82062546	0	1e-09
  2507	14.99679016	0	1e-09
  2508	14.89356297	0	1e-09
  2509	14.83374893	0	1e-09
  2510	14.91423293	0	1e-09
  2511	14.92385791	0	1e-09
  2512	15.06142651	0	1e-09
  2513	14.96462653	0	1e-09
  2514	15.04346818	0	1e-09
  2515	14.88775183	0	1e-09
  2516	14.89838597	0	1e-09
  2517	14.83339106	0	1e-09
  2518	15.14718486	0	1e-09
  2519	14.97247291	0	1e-09
  2520	14.99986446	0	1e-09
  2521	14.69578231	0	1e-09
  2522	15.07643447	0	1e-09
  2523	15.03307413	0	1e-09
  2524	14.72454662	0	1e-09
  2525	15.01860068	0	1e-09
  2526	14.94697387	0	1e-09
  2527	15.12665498	0	1e-09
  2528	14.80572059	0	1e-09
  2529	15.01247205	0	1e-09
  2530	14.95073728	0	1e-09
  2531	14.93464088	0	1e-09
  2532	14.9780898	0	1e-09
  2533	14.86483027	0	1e-09
  2534	14.87685618	0	1e-09
  2535	14.93149869	0	1e-09
  2536	14.93048707	0	1e-09
  2537	15.11956134	0	1e-09
  2538	14.9704824	0	1e-09
  2539	14.95634601	0	1e-09
  2540	14.84183587	0	1e-09
  2541	14.81391237	0	1e-09
  2542	15.02100452	0	1e-09
  2543	14.83351489	0	1e-09
  2544	14.93419108	0	1e-09
  2545	15.01270829	0	1e-09
  2546	14.7857786	0	1e-09
  2547	14.85912565	0	1e-09
  2548	15.15702003	0	1e-09
  2549	14.79057206	0	1e-09
  2550	14.97841027	0	1e-09
  2551	14.77887434	0	1e-09
  2552	14.92750606	0	1e-09
  2553	14.94238362	0	1e-09
  2554	15.02114194	0	1e-09
  2555	14.9638817	0	1e-09
  2556	15.26272451	0	1e-09
  2557	15.09806921	0	1e-09
  2558	14.88738439	0	1e-09
  2559	15.05757767	0	1e-09
  2560	14.80647247	0	1e-09
  2561	15.00376692	0	1e-09
  2562	15.0304213	0	1e-09
  2563	14.83124826	0	1e-09
  2564	15.02841199	0	1e-09
  2565	14.81333269	0	1e-09
  2566	15.02278536	0	1e-09
  2567	14.989728	0	1e-09
  2568	14.94979355	0	1e-09
  2569	14.98824309	0	1e-09
  2570	14.92907627	0	1e-09
  2571	14.96329283	0	1e-09
  2572	15.0772798	0	1e-09
  2573	14.80074191	0	1e-09
  2574	14.90397954	0	1e-09
  2575	15.00344127	0	1e-09
  2576	14.8284404	0	1e-09
  2577	14.80091892	0	1e-09
  2578	15.14667192	0	1e-09
  2579	14.99133661	0	1e-09
  2580	14.81499807	0	1e-09
  2581	14.76145361	0	1e-09
  2582	15.21377746	0	1e-09
  2583	14.80720462	0	1e-09
  2584	14.94583298	0	1e-09
  2585	15.01385331	0	1e-09
  2586	15.08978618	0	1e-09
  2587	14.87155901	0	1e-09
  2588	14.81242238	0	1e-09
  2589	14.87999346	0	1e-09
  2590	14.70256874	0	1e-09
  2591	15.17109911	0	1e-09
  2592	15.03273069	0	1e-09
  2593	14.85422316	0	1e-09
  2594	14.92423569	0	1e-09
  2595	15.02533065	0	1e-09
  2596	14.98650356	0	1e-09
  2597	14.65032038	0	1e-09
  2598	14.86883076	0	1e-09
  2599	15.01426536	0	1e-09
  2600	15.07494992	0	1e-09
  2601	14.71014197	0	1e-09
  2602	15.0204544	0	1e-09
  2603	14.98555072	0	1e-09
  2604	14.83110326	0	1e-09
  2605	14.9210642	0	1e-09
  2606	15.10144927	0	1e-09
  2607	14.9094138	0	1e-09
  2608	14.99181799	0	1e-09
  2609	14.88545817	0	1e-09
  2610	14.9251078	0	1e-09
  2611	14.96159178	0	1e-09
  2612	14.78884684	0	1e-09
  2613	15.13494607	0	1e-09
  2614	15.21400528	0	1e-09
  2615	14.93267942	0	1e-09
  2616	14.79093977	0	1e-09
  2617	14.94428081	0	1e-09
  2618	14.95928483	0	1e-09
  2619	14.92840147	0	1e-09
  2620	14.89460339	0	1e-09
  2621	14.72287079	0	1e-09
  2622	14.95803099	0	1e-09
  2623	14.8289584	0	1e-09
  2624	14.78242132	0	1e-09
  2625	14.8739707	0	1e-09
  2626	14.94126122	0	1e-09
  2627	14.86012299	0	1e-09
  2628	14.97041227	0	1e-09
  2629	14.81869853	0	1e-09
  2630	14.72569568	0	1e-09
  2631	14.8816075	0	1e-09
  2632	14.91000115	0	1e-09
  2633	14.86141949	0	1e-09
  2634	14.88038385	0	1e-09
  2635	14.96590391	0	1e-09
  2636	14.94450089	0	1e-09
  2637	14.89102397	0	1e-09
  2638	14.9733447	0	1e-09
  2639	14.70804108	0	1e-09
  2640	15.05172755	0	1e-09
  2641	14.80663364	0	1e-09
  2642	14.99290059	0	1e-09
  2643	14.9903896	0	1e-09
  2644	15.08418174	0	1e-09
  2645	15.10354045	0	1e-09
  2646	15.29014956	0	1e-09
  2647	14.75174471	0	1e-09
  2648	14.91272545	0	1e-09
  2649	15.07261724	0	1e-09
  2650	14.81564458	0	1e-09
  2651	14.89510007	0	1e-09
  2652	15.16271503	0	1e-09
  2653	15.07812576	0	1e-09
  2654	15.01106914	0	1e-09
  2655	14.99261512	0	1e-09
  2656	14.75720758	0	1e-09
  2657	15.1212209	0	1e-09
  2658	14.86576189	0	1e-09
  2659	15.14673216	0	1e-09
  2660	15.03304769	0	1e-09
  2661	15.01239492	0	1e-09
  2662	15.00632015	0	1e-09
  2663	15.07839198	0	1e-09
  2664	14.73771697	0	1e-09
  2665	15.04123074	0	1e-09
  2666	14.98704244	0	1e-09
  2667	14.8604354	0	1e-09
  2668	15.01516161	0	1e-09
  2669	15.03121039	0	1e-09
  2670	14.92838615	0	1e-09
  2671	15.1837595	0	1e-09
  2672	14.81129259	0	1e-09
  2673	15.23082015	0	1e-09
  2674	14.55937055	0	1e-09
  2675	15.02453285	0	1e-09
  2676	15.19503221	0	1e-09
  2677	15.04388548	0	1e-09
  2678	14.86619006	0	1e-09
  2679	15.05304191	0	1e-09
  2680	14.84704777	0	1e-09
  2681	14.91395587	0	1e-09
  2682	15.08698297	0	1e-09
  2683	14.8500941	0	1e-09
  2684	14.81119286	0	1e-09
  2685	14.97708776	0	1e-09
  2686	14.74157129	0	1e-09
  2687	15.03449447	0	1e-09
  2688	15.0841162	0	1e-09
  2689	14.93139403	0	1e-09
  2690	14.97976017	0	1e-09
  2691	14.84386787	0	1e-09
  2692	15.18965743	0	1e-09
  2693	14.87464146	0	1e-09
  2694	15.03420313	0	1e-09
  2695	14.56186077	0	1e-09
  2696	15.01248688	0	1e-09
  2697	14.90537193	0	1e-09
  2698	14.91022065	0	1e-09
  2699	14.70570251	0	1e-09
  2700	14.85650849	0	1e-09
  2701	14.71611069	0	1e-09
  2702	15.12276383	0	1e-09
  2703	15.13463397	0	1e-09
  2704	15.0224062	0	1e-09
  2705	14.97095955	0	1e-09
  2706	15.04422685	0	1e-09
  2707	14.85898763	0	1e-09
  2708	15.03839568	0	1e-09
  2709	15.15101646	0	1e-09
  2710	15.05063635	0	1e-09
  2711	14.84597247	0	1e-09
  2712	14.99320582	0	1e-09
  2713	15.13215855	0	1e-09
  2714	15.02939678	0	1e-09
  2715	14.85544647	0	1e-09
  2716	14.9415407	0	1e-09
  2717	14.89056666	0	1e-09
  2718	14.77882384	0	1e-09
  2719	15.23429788	0	1e-09
  2720	14.92458801	0	1e-09
  2721	14.91468506	0	1e-09
  2722	14.84618359	0	1e-09
  2723	14.82728561	0	1e-09
  2724	14.93737456	0	1e-09
  2725	14.95153939	0	1e-09
  2726	15.07471349	0	1e-09
  2727	14.88501416	0	1e-09
  2728	15.06990558	0	1e-09
  2729	14.83740113	0	1e-09
  2730	14.94556658	0	1e-09
  2731	14.98827536	0	1e-09
  2732	14.83951586	0	1e-09
  2733	14.99329445	0	1e-09
  2734	14.97499685	0	1e-09
  2735	15.03003834	0	1e-09
  2736	14.92162298	0	1e-09
  2737	14.86085019	0	1e-09
  2738	15.14942343	0	1e-09
  2739	14.81395735	0	1e-09
  2740	14.8136311	0	1e-09
  2741	14.97059095	0	1e-09
  2742	14.93925261	0	1e-09
  2743	15.03218373	0	1e-09
  2744	15.12314021	0	1e-09
  2745	14.97537091	0	1e-09
  2746	15.27958533	0	1e-09
  2747	14.85271934	0	1e-09
  2748	14.84349681	0	1e-09
  2749	14.90993988	0	1e-09
  2750	15.07665405	0	1e-09
  2751	15.04795528	0	1e-09
  2752	15.13839393	0	1e-09
  2753	14.86070869	0	1e-09
  2754	14.98696276	0	1e-09
  2755	14.96914642	0	1e-09
  2756	14.88465051	0	1e-09
  2757	14.82061313	0	1e-09
  2758	15.05381925	0	1e-09
  2759	14.88971026	0	1e-09
  2760	15.13749319	0	1e-09
  2761	14.9481113	0	1e-09
  2762	15.03567361	0	1e-09
  2763	15.07880276	0	1e-09
  2764	14.93784039	0	1e-09
  2765	14.87478385	0	1e-09
  2766	14.54418988	0	1e-09
  2767	14.66740913	0	1e-09
  2768	14.97330536	0	1e-09
  2769	14.94612732	0	1e-09
  2770	14.81457967	0	1e-09
  2771	14.77787793	0	1e-09
  2772	15.05656848	0	1e-09
  2773	15.03549321	0	1e-09
  2774	15.16454908	0	1e-09
  2775	14.9081315	0	1e-09
  2776	15.08627409	0	1e-09
  2777	14.8459091	0	1e-09
  2778	15.27512777	0	1e-09
  2779	15.04908996	0	1e-09
  2780	14.99852086	0	1e-09
  2781	14.99886548	0	1e-09
  2782	15.13517729	0	1e-09
  2783	14.88520703	0	1e-09
  2784	14.8033575	0	1e-09
  2785	15.01423023	0	1e-09
  2786	14.92295536	0	1e-09
  2787	14.83362667	0	1e-09
  2788	14.74946593	0	1e-09
  2789	15.00559639	0	1e-09
  2790	14.85107814	0	1e-09
  2791	15.01887675	0	1e-09
  2792	14.95220817	0	1e-09
  2793	14.99986909	0	1e-09
  2794	14.98135326	0	1e-09
  2795	14.98729718	0	1e-09
  2796	14.97811993	0	1e-09
  2797	15.1316593	0	1e-09
  2798	14.75380845	0	1e-09
  2799	14.94842466	0	1e-09
  2800	14.92848492	0	1e-09
  2801	14.80633849	0	1e-09
  2802	14.77106613	0	1e-09
  2803	14.97830562	0	1e-09
  2804	14.79086743	0	1e-09
  2805	14.90383235	0	1e-09
  2806	14.96058177	0	1e-09
  2807	14.88837735	0	1e-09
  2808	14.78640676	0	1e-09
  2809	15.04374197	0	1e-09
  2810	14.87556603	0	1e-09
  2811	14.63381578	0	1e-09
  2812	14.95625463	0	1e-09
  2813	15.009685	0	1e-09
  2814	14.91359779	0	1e-09
  2815	14.81573116	0	1e-09
  2816	15.11268721	0	1e-09
  2817	15.10117751	0	1e-09
  2818	14.98887142	0	1e-09
  2819	14.80527266	0	1e-09
  2820	15.13253248	0	1e-09
  2821	14.78737949	0	1e-09
  2822	14.76337281	0	1e-09
  2823	15.09147434	0	1e-09
  2824	15.10588526	0	1e-09
  2825	14.92141574	0	1e-09
  2826	14.93928288	0	1e-09
  2827	14.92141357	0	1e-09
  2828	15.06937071	0	1e-09
  2829	14.97467312	0	1e-09
  2830	15.09253052	0	1e-09
  2831	15.03710621	0	1e-09
  2832	14.91537673	0	1e-09
  2833	14.97605052	0	1e-09
  2834	14.95217523	0	1e-09
  2835	15.07600162	0	1e-09
  2836	14.89430913	0	1e-09
  2837	14.99633655	0	1e-09
  2838	14.8975775	0	1e-09
  2839	15.02531708	0	1e-09
  2840	14.78930598	0	1e-09
  2841	14.75049421	0	1e-09
  2842	14.90607315	0	1e-09
  2843	14.89469004	0	1e-09
  2844	14.87055249	0	1e-09
  2845	14.92667121	0	1e-09
  2846	15.06192753	0	1e-09
  2847	15.02409176	0	1e-09
  2848	14.97050095	0	1e-09
  2849	14.99935064	0	1e-09
  2850	14.83502567	0	1e-09
  2851	15.0014937	0	1e-09
  2852	14.59842791	0	1e-09
  2853	14.83516749	0	1e-09
  2854	15.00154253	0	1e-09
  2855	14.87561707	0	1e-09
  2856	14.98877548	0	1e-09
  2857	14.96507553	0	1e-09
  2858	14.98180985	0	1e-09
  2859	14.90270341	0	1e-09
  2860	14.94837365	0	1e-09
  2861	14.71214454	0	1e-09
  2862	14.71156767	0	1e-09
  2863	14.96887733	0	1e-09
  2864	14.96233383	0	1e-09
  2865	14.84371907	0	1e-09
  2866	15.05980501	0	1e-09
  2867	15.02303794	0	1e-09
  2868	15.02774196	0	1e-09
  2869	15.04836925	0	1e-09
  2870	15.08756151	0	1e-09
  2871	14.9224949	0	1e-09
  2872	14.87733721	0	1e-09
  2873	14.8720431	0	1e-09
  2874	14.9107506	0	1e-09
  2875	15.05585829	0	1e-09
  2876	15.01066875	0	1e-09
  2877	14.95496345	0	1e-09
  2878	15.05626335	0	1e-09
  2879	14.85634396	0	1e-09
  2880	14.78177731	0	1e-09
  2881	15.26931687	0	1e-09
  2882	14.88133417	0	1e-09
  2883	14.914289	0	1e-09
  2884	15.03301023	0	1e-09
  2885	14.86425328	0	1e-09
  2886	14.83707572	0	1e-09
  2887	14.99884706	0	1e-09
  2888	15.04681055	0	1e-09
  2889	15.11055258	0	1e-09
  2890	14.83639544	0	1e-09
  2891	14.89913521	0	1e-09
  2892	15.2216704	0	1e-09
  2893	14.93935057	0	1e-09
  2894	14.97113173	0	1e-09
  2895	14.74820388	0	1e-09
  2896	15.04153242	0	1e-09
  2897	14.84602201	0	1e-09
  2898	15.03444126	0	1e-09
  2899	15.20228995	0	1e-09
  2900	15.00118523	0	1e-09
  2901	14.72736954	0	1e-09
  2902	14.98950713	0	1e-09
  2903	14.95751922	0	1e-09
  2904	14.90244122	0	1e-09
  2905	14.94701542	0	1e-09
  2906	14.68992526	0	1e-09
  2907	14.9464078	0	1e-09
  2908	15.02956196	0	1e-09
  2909	14.89646298	0	1e-09
  2910	15.02819226	0	1e-09
  2911	14.94698279	0	1e-09
  2912	14.86213296	0	1e-09
  2913	14.89098022	0	1e-09
  2914	14.93443526	0	1e-09
  2915	14.87475569	0	1e-09
  2916	14.77518797	0	1e-09
  2917	14.98627496	0	1e-09
  2918	14.93228444	0	1e-09
  2919	14.72953806	0	1e-09
  2920	15.02929791	0	1e-09
  2921	14.67027625	0	1e-09
  2922	14.88209125	0	1e-09
  2923	14.91166464	0	1e-09
  2924	15.18838876	0	1e-09
  2925	14.88767985	0	1e-09
  2926	14.90645251	0	1e-09
  2927	14.93703263	0	1e-09
  2928	14.80389581	0	1e-09
  2929	15.05852315	0	1e-09
  2930	14.78906499	0	1e-09
  2931	14.71645988	0	1e-09
  2932	15.06215972	0	1e-09
  2933	14.8775693	0	1e-09
  2934	14.90757387	0	1e-09
  2935	14.79778107	0	1e-09
  2936	14.94336352	0	1e-09
  2937	14.78562545	0	1e-09
  2938	15.17551738	0	1e-09
  2939	14.93110002	0	1e-09
  2940	14.96742029	0	1e-09
  2941	14.75122774	0	1e-09
  2942	14.88908226	0	1e-09
  2943	15.20890458	0	1e-09
  2944	14.99371997	0	1e-09
  2945	14.81482385	0	1e-09
  2946	14.88962162	0	1e-09
  2947	15.15312727	0	1e-09
  2948	14.91153821	0	1e-09
  2949	15.15423034	0	1e-09
  2950	14.81583441	0	1e-09
  2951	15.16170661	0	1e-09
  2952	15.01220077	0	1e-09
  2953	14.77434205	0	1e-09
  2954	14.74253966	0	1e-09
  2955	14.99504281	0	1e-09
  2956	14.84196124	0	1e-09
  2957	14.85892784	0	1e-09
  2958	15.18543905	0	1e-09
  2959	15.03864349	0	1e-09
  2960	14.89461925	0	1e-09
  2961	15.00796229	0	1e-09
  2962	15.06634215	0	1e-09
  2963	15.11242439	0	1e-09
  2964	14.96836446	0	1e-09
  2965	14.96260612	0	1e-09
  2966	15.07675453	0	1e-09
  2967	15.03969131	0	1e-09
  2968	14.90039161	0	1e-09
  2969	14.9589616	0	1e-09
  2970	15.08268686	0	1e-09
  2971	14.84918559	0	1e-09
  2972	14.97903239	0	1e-09
  2973	15.07276618	0	1e-09
  2974	15.06911593	0	1e-09
  2975	15.02854872	0	1e-09
  2976	15.19990118	0	1e-09
  2977	15.08176608	0	1e-09
  2978	14.61746429	0	1e-09
  2979	14.8575921	0	1e-09
  2980	15.1624837	0	1e-09
  2981	14.82456916	0	1e-09
  2982	14.97420965	0	1e-09
  2983	14.99766403	0	1e-09
  2984	15.02789493	0	1e-09
  2985	15.06182752	0	1e-09
  2986	15.08728076	0	1e-09
  2987	14.95995579	0	1e-09
  2988	14.86589901	0	1e-09
  2989	14.77350057	0	1e-09
  2990	14.81419569	0	1e-09
  2991	14.89339037	0	1e-09
  2992	14.6690515	0	1e-09
  2993	15.03161084	0	1e-09
  2994	14.88242991	0	1e-09
  2995	14.94542641	0	1e-09
  2996	14.83620667	0	1e-09
  2997	15.09591258	0	1e-09
  2998	14.76134667	0	1e-09
  2999	14.94204435	0	1e-09
  3000	14.88282085	0	1e-09
  3001	14.77084668	0	1e-09

Total elapsed time: 45.094 seconds.

