LTspice 24.0.12 for Windows
Circuit: * C:\Users\AntovI\Desktop\Projects\702\702-pumpcontrol102\Simulations\+24V_IN\24V_IN.asc
Start Time: Wed Mar  5 10:54:43 2025
solver = Normal
Maximum thread count: 12
tnom = 27
temp = 27
method = modified trap
.OP point found by inspection.
Total elapsed time: 27.383 seconds.

